// ------------ Tractor Medium Trailers ------------------ //

   // Medium Trailers

   16 * 67	 00 01 \b25 01 VEH_TRACTOR_MEDIUM_TRAILER
      00 00 00  // intro date (min value: 1-1-1920)
      02 20     // reliability
      03 19     // vehicle life
      04 23     // class life
      06 00     // climate
      07 05     // load amount
      08 E0     // speed in mph * 3.2
      09 08     // running cost factor
      0A 48 4C 00 00    // running cost base
      0E FF     // sprite ID
      0F \b19     // capacity
      10 06     // cargo type
      11 00     // cost factor
      12 00     // sound effect
      13 \b00   // power in 10 hp
      14 \b12   // weight in 1/4 tons
      15 38     // speed in mph * 0.8
      16 00 00 00 00    // bit mask of cargo types available for refitting
      17 30     // callback flags bit mask
      1A 00     // refit cost, using 25% of the purchase price cost base
      1B 00     // retire vehicle early, this many years before the end of phase 2
      1C 02     // Miscellaneous vehicle flags 01 = tram, 02 = use 2CC 
      1D FF 03      // refittable cargo classes
      1E 01 00      // non-refittable cargo classes
      1F 60 B3 0A 00    // long format introduction date     
   17 * 30	 04 01 7F 01 VEH_TRACTOR_MEDIUM_TRAILER "[Generic Medium Trailer]" 00
// define additional text suffixes
   18 * 28	 04 00 81 02 00 D0
            		" (refit 1)" 00	//
               	" (refit 2)" 00	//
   // Medium Goods Trailer
   19 * 4	 01 01 01 08
   // Medium box trailer
   20 sprites/pcx/standard_trailers/medium_trailer_tandem.pcx 34 570 01 24 12 -3 -10
   21 sprites/pcx/standard_trailers/medium_trailer_tandem.pcx 66 570 01 20 26 -11 -9
   22 sprites/pcx/standard_trailers/medium_trailer_tandem.pcx 98 570 01 16 36 -14 -6
   23 sprites/pcx/standard_trailers/medium_trailer_tandem.pcx 146 570 01 20 26 -9 -7
   24 sprites/pcx/standard_trailers/medium_trailer_tandem.pcx 178 570 01 24 12 -9 -16
   25 sprites/pcx/standard_trailers/medium_trailer_tandem.pcx 210 570 01 20 26 -17 -7
   26 sprites/pcx/standard_trailers/medium_trailer_tandem.pcx 242 570 01 16 36 -30 -8
   27 sprites/pcx/standard_trailers/medium_trailer_tandem.pcx 290 570 01 20 26 -13 -10
   28 * 9	 02 01 05   01 01   00 00    00 00 // box
   // Medium end dump trailer - empty
   29 * 4	 01 01 0D 08
   30 sprites/pcx/standard_trailers/medium_trailer_tandem.pcx 34 50 01 24 12 -3 -10
   31 sprites/pcx/standard_trailers/medium_trailer_tandem.pcx 66 50 09 20 26 -11 -9
   32 sprites/pcx/standard_trailers/medium_trailer_tandem.pcx 98 50 01 16 36 -14 -6
   33 sprites/pcx/standard_trailers/medium_trailer_tandem.pcx 146 50 09 20 26 -9 -7
   34 sprites/pcx/standard_trailers/medium_trailer_tandem.pcx 178 50 01 24 12 -9 -16
   35 sprites/pcx/standard_trailers/medium_trailer_tandem.pcx 210 50 09 20 26 -17 -7
   36 sprites/pcx/standard_trailers/medium_trailer_tandem.pcx 242 50 01 16 36 -30 -8
   37 sprites/pcx/standard_trailers/medium_trailer_tandem.pcx 290 50 09 20 26 -13 -10
   // Medium end dump - iron ore, loading  !! this isn't iron ore??
   38 sprites/pcx/standard_trailers/medium_trailer_tandem.pcx 34 490 01 24 12 -3 -10
   39 sprites/pcx/standard_trailers/medium_trailer_tandem.pcx 66 490 09 20 20 -11 -9
   40 sprites/pcx/standard_trailers/medium_trailer_tandem.pcx 98 490 01 16 36 -14 -6
   41 sprites/pcx/standard_trailers/medium_trailer_tandem.pcx 146 490 09 20 26 -9 -7
   42 sprites/pcx/standard_trailers/medium_trailer_tandem.pcx 178 490 01 24 12 -9 -16
   43 sprites/pcx/standard_trailers/medium_trailer_tandem.pcx 210 490 09 20 26 -17 -7
   44 sprites/pcx/standard_trailers/medium_trailer_tandem.pcx 242 490 01 16 36 -30 -8
   45 sprites/pcx/standard_trailers/medium_trailer_tandem.pcx 290 490 09 20 26 -13 -10
   // Medium end dump - iron ore, loaded  !! this isn't iron ore??
   46 sprites/pcx/standard_trailers/medium_trailer_tandem.pcx 34 530 01 24 12 -3 -10
   47 sprites/pcx/standard_trailers/medium_trailer_tandem.pcx 66 530 09 20 20 -11 -9
   48 sprites/pcx/standard_trailers/medium_trailer_tandem.pcx 98 530 01 16 36 -14 -6
   49 sprites/pcx/standard_trailers/medium_trailer_tandem.pcx 146 530 09 20 26 -9 -7
   50 sprites/pcx/standard_trailers/medium_trailer_tandem.pcx 178 530 01 24 12 -9 -16
   51 sprites/pcx/standard_trailers/medium_trailer_tandem.pcx 210 530 09 20 26 -17 -7
   52 sprites/pcx/standard_trailers/medium_trailer_tandem.pcx 242 530 01 16 36 -30 -8
   53 sprites/pcx/standard_trailers/medium_trailer_tandem.pcx 290 530 09 20 26 -13 -10
   // Medium end dump - coal, loading
   54 sprites/pcx/standard_trailers/medium_trailer_tandem.pcx 34 170 01 24 12 -3 -10
   55 sprites/pcx/standard_trailers/medium_trailer_tandem.pcx 66 170 09 20 26 -11 -9
   56 sprites/pcx/standard_trailers/medium_trailer_tandem.pcx 98 170 01 16 36 -14 -6
   57 sprites/pcx/standard_trailers/medium_trailer_tandem.pcx 146 170 09 20 26 -9 -7
   58 sprites/pcx/standard_trailers/medium_trailer_tandem.pcx 178 170 01 24 12 -9 -16
   59 sprites/pcx/standard_trailers/medium_trailer_tandem.pcx 210 170 09 20 26 -17 -7
   60 sprites/pcx/standard_trailers/medium_trailer_tandem.pcx 242 170 01 16 36 -30 -8
   61 sprites/pcx/standard_trailers/medium_trailer_tandem.pcx 290 170 09 20 26 -13 -10
   // Medium end dump - coal, loaded
   62 sprites/pcx/standard_trailers/medium_trailer_tandem.pcx 34 210 01 24 12 -3 -10
   63 sprites/pcx/standard_trailers/medium_trailer_tandem.pcx 66 210 09 20 26 -11 -9
   64 sprites/pcx/standard_trailers/medium_trailer_tandem.pcx 98 210 01 16 36 -14 -6
   65 sprites/pcx/standard_trailers/medium_trailer_tandem.pcx 146 210 09 20 26 -9 -7
   66 sprites/pcx/standard_trailers/medium_trailer_tandem.pcx 178 210 01 24 12 -9 -16
   67 sprites/pcx/standard_trailers/medium_trailer_tandem.pcx 210 210 09 20 26 -17 -7
   68 sprites/pcx/standard_trailers/medium_trailer_tandem.pcx 242 210 01 16 36 -30 -8
   69 sprites/pcx/standard_trailers/medium_trailer_tandem.pcx 290 210 09 20 26 -13 -10
   // Medium end dump - grain, loading
   70 sprites/pcx/standard_trailers/medium_trailer_tandem.pcx 34 250 01 24 12 -3 -10
   71 sprites/pcx/standard_trailers/medium_trailer_tandem.pcx 66 250 09 20 26 -11 -9
   72 sprites/pcx/standard_trailers/medium_trailer_tandem.pcx 98 250 01 16 36 -14 -6
   73 sprites/pcx/standard_trailers/medium_trailer_tandem.pcx 146 250 09 20 26 -9 -7
   74 sprites/pcx/standard_trailers/medium_trailer_tandem.pcx 178 250 01 24 12 -9 -16
   75 sprites/pcx/standard_trailers/medium_trailer_tandem.pcx 210 250 09 20 26 -17 -7
   76 sprites/pcx/standard_trailers/medium_trailer_tandem.pcx 242 250 01 16 36 -30 -8
   77 sprites/pcx/standard_trailers/medium_trailer_tandem.pcx 290 250 09 20 26 -13 -10
  // Medium end dump - grain, loaded
   78 sprites/pcx/standard_trailers/medium_trailer_tandem.pcx 34 290 01 24 12 -3 -10
   79 sprites/pcx/standard_trailers/medium_trailer_tandem.pcx 66 290 09 20 26 -11 -9
   80 sprites/pcx/standard_trailers/medium_trailer_tandem.pcx 98 290 01 16 36 -14 -6
   81 sprites/pcx/standard_trailers/medium_trailer_tandem.pcx 146 290 09 20 26 -9 -7
   82 sprites/pcx/standard_trailers/medium_trailer_tandem.pcx 178 290 01 24 12 -9 -16
   83 sprites/pcx/standard_trailers/medium_trailer_tandem.pcx 210 290 09 20 26 -17 -7
   84 sprites/pcx/standard_trailers/medium_trailer_tandem.pcx 242 290 01 16 36 -30 -8
   85 sprites/pcx/standard_trailers/medium_trailer_tandem.pcx 290 290 09 20 26 -13 -10
  // Medium end dump - clay, loading
   86 sprites/pcx/standard_trailers/medium_trailer_tandem.pcx 34 410 01 24 12 -3 -10
   87 sprites/pcx/standard_trailers/medium_trailer_tandem.pcx 66 410 09 20 26 -11 -9
   88 sprites/pcx/standard_trailers/medium_trailer_tandem.pcx 98 410 01 16 36 -14 -6
   89 sprites/pcx/standard_trailers/medium_trailer_tandem.pcx 146 410 09 20 26 -9 -7
   90 sprites/pcx/standard_trailers/medium_trailer_tandem.pcx 178 410 01 24 12 -9 -16
   91 sprites/pcx/standard_trailers/medium_trailer_tandem.pcx 210 410 09 20 26 -17 -7
   92 sprites/pcx/standard_trailers/medium_trailer_tandem.pcx 242 410 01 16 36 -30 -8
   93 sprites/pcx/standard_trailers/medium_trailer_tandem.pcx 290 410 09 20 26 -13 -10
  // Medium end dump - clay, loaded
   94 sprites/pcx/standard_trailers/medium_trailer_tandem.pcx 34 450 01 24 12 -3 -10
   95 sprites/pcx/standard_trailers/medium_trailer_tandem.pcx 66 450 09 20 26 -11 -9
   96 sprites/pcx/standard_trailers/medium_trailer_tandem.pcx 98 450 01 16 36 -14 -6
   97 sprites/pcx/standard_trailers/medium_trailer_tandem.pcx 146 450 09 20 26 -9 -7
   98 sprites/pcx/standard_trailers/medium_trailer_tandem.pcx 178 450 01 24 12 -9 -16
   99 sprites/pcx/standard_trailers/medium_trailer_tandem.pcx 210 450 09 20 26 -17 -7
  100 sprites/pcx/standard_trailers/medium_trailer_tandem.pcx 242 450 01 16 36 -30 -8
  101 sprites/pcx/standard_trailers/medium_trailer_tandem.pcx 290 450 09 20 26 -13 -10
  // Medium end dump - copper ore, loading
  102 sprites/pcx/standard_trailers/medium_trailer_tandem.pcx 34 330 01 24 12 -3 -10
  103 sprites/pcx/standard_trailers/medium_trailer_tandem.pcx 66 330 09 20 26 -11 -9
  104 sprites/pcx/standard_trailers/medium_trailer_tandem.pcx 98 330 01 16 36 -14 -6
  105 sprites/pcx/standard_trailers/medium_trailer_tandem.pcx 146 330 09 20 26 -9 -7
  106 sprites/pcx/standard_trailers/medium_trailer_tandem.pcx 178 330 01 24 12 -9 -16
  107 sprites/pcx/standard_trailers/medium_trailer_tandem.pcx 210 330 09 20 26 -17 -7
  108 sprites/pcx/standard_trailers/medium_trailer_tandem.pcx 242 330 01 16 36 -30 -8
  109 sprites/pcx/standard_trailers/medium_trailer_tandem.pcx 290 330 09 20 26 -13 -10
  // Medium end dump - copper ore, loaded
  110 sprites/pcx/standard_trailers/medium_trailer_tandem.pcx 34 370 01 24 12 -3 -10
  111 sprites/pcx/standard_trailers/medium_trailer_tandem.pcx 66 370 09 20 26 -11 -9
  112 sprites/pcx/standard_trailers/medium_trailer_tandem.pcx 98 370 01 16 36 -14 -6
  113 sprites/pcx/standard_trailers/medium_trailer_tandem.pcx 146 370 09 20 26 -9 -7
  114 sprites/pcx/standard_trailers/medium_trailer_tandem.pcx 178 370 01 24 12 -9 -16
  115 sprites/pcx/standard_trailers/medium_trailer_tandem.pcx 210 370 09 20 26 -17 -7
  116 sprites/pcx/standard_trailers/medium_trailer_tandem.pcx 242 370 01 16 36 -30 -8
  117 sprites/pcx/standard_trailers/medium_trailer_tandem.pcx 290 370 09 20 26 -13 -10
  // Medium end dump - gravel, loading
  118 sprites/pcx/standard_trailers/medium_trailer_tandem.pcx 34 90 01 24 12 -3 -10
  119 sprites/pcx/standard_trailers/medium_trailer_tandem.pcx 66 90 09 20 26 -11 -9
  120 sprites/pcx/standard_trailers/medium_trailer_tandem.pcx 98 90 01 16 36 -14 -6
  121 sprites/pcx/standard_trailers/medium_trailer_tandem.pcx 146 90 09 20 26 -9 -7
  122 sprites/pcx/standard_trailers/medium_trailer_tandem.pcx 178 90 01 24 12 -9 -16
  123 sprites/pcx/standard_trailers/medium_trailer_tandem.pcx 210 90 09 20 26 -17 -7
  124 sprites/pcx/standard_trailers/medium_trailer_tandem.pcx 242 90 01 16 36 -30 -8
  125 sprites/pcx/standard_trailers/medium_trailer_tandem.pcx 290 90 09 20 26 -13 -10
  // Medium end dump - gravel, loaded
  126 sprites/pcx/standard_trailers/medium_trailer_tandem.pcx 34 130 01 24 12 -3 -10
  127 sprites/pcx/standard_trailers/medium_trailer_tandem.pcx 66 130 09 20 26 -11 -9
  128 sprites/pcx/standard_trailers/medium_trailer_tandem.pcx 98 130 01 16 36 -14 -6
  129 sprites/pcx/standard_trailers/medium_trailer_tandem.pcx 146 130 09 20 26 -9 -7
  130 sprites/pcx/standard_trailers/medium_trailer_tandem.pcx 178 130 01 24 12 -9 -16
  131 sprites/pcx/standard_trailers/medium_trailer_tandem.pcx 210 130 09 20 26 -17 -7
  132 sprites/pcx/standard_trailers/medium_trailer_tandem.pcx 242 130 01 16 36 -30 -8
  133 sprites/pcx/standard_trailers/medium_trailer_tandem.pcx 290 130 09 20 26 -13 -10
  134 * 17	 02 01 08  03 03    00 00  01 00  02 00    00 00  01 00  02 00 // iron ore
  135 * 17	 02 01 01  03 03    00 00  03 00  04 00    00 00  03 00  04 00 // coal
  136 * 17	 02 01 06  03 03    00 00  05 00  06 00    00 00  05 00  06 00 // grain
  137 * 17	 02 01 0E  03 03    00 00  07 00  08 00    00 00  07 00  08 00 // brown 
  138 * 17	 02 01 17  03 03    00 00  09 00  0A 00    00 00  09 00  0A 00 // red
  139 * 17	 02 01 11  03 03    00 00  0B 00  0C 00    00 00  0B 00  0C 00 // grey
  // Medium flat trailer / (also stake trailer ??)
  140 * 4	 01 01 0C 08
  // Medium flat trailer - empty
  141 sprites/pcx/standard_trailers/medium_trailer_tandem.pcx 34 730 01 24 12 -3 -10
  142 sprites/pcx/standard_trailers/medium_trailer_tandem.pcx 66 730 09 20 26 -11 -9
  143 sprites/pcx/standard_trailers/medium_trailer_tandem.pcx 98 730 01 16 36 -14 -6
  144 sprites/pcx/standard_trailers/medium_trailer_tandem.pcx 146 730 09 20 26 -9 -7
  145 sprites/pcx/standard_trailers/medium_trailer_tandem.pcx 178 730 01 24 12 -9 -16
  146 sprites/pcx/standard_trailers/medium_trailer_tandem.pcx 210 730 09 20 26 -17 -7
  147 sprites/pcx/standard_trailers/medium_trailer_tandem.pcx 242 730 01 16 36 -30 -8
  148 sprites/pcx/standard_trailers/medium_trailer_tandem.pcx 290 730 09 20 26 -13 -10
  // Medium flat trailer - steel, loading  
  149 sprites/pcx/standard_trailers/medium_trailer_tandem.pcx 34 970 01 24 12 -3 -10
  150 sprites/pcx/standard_trailers/medium_trailer_tandem.pcx 66 970 09 20 26 -11 -9
  151 sprites/pcx/standard_trailers/medium_trailer_tandem.pcx 98 970 01 16 36 -14 -6
  152 sprites/pcx/standard_trailers/medium_trailer_tandem.pcx 146 970 09 20 26 -9 -7
  153 sprites/pcx/standard_trailers/medium_trailer_tandem.pcx 178 970 01 24 12 -9 -16
  154 sprites/pcx/standard_trailers/medium_trailer_tandem.pcx 210 970 09 20 26 -17 -7
  155 sprites/pcx/standard_trailers/medium_trailer_tandem.pcx 242 970 01 16 36 -30 -8
  156 sprites/pcx/standard_trailers/medium_trailer_tandem.pcx 290 970 09 20 26 -13 -10
  // Medium flat trailer - steel, loaded  
  157 sprites/pcx/standard_trailers/medium_trailer_tandem.pcx 34 970 01 24 12 -3 -10
  158 sprites/pcx/standard_trailers/medium_trailer_tandem.pcx 66 970 09 20 26 -11 -9
  159 sprites/pcx/standard_trailers/medium_trailer_tandem.pcx 98 970 01 16 36 -14 -6
  160 sprites/pcx/standard_trailers/medium_trailer_tandem.pcx 146 970 09 20 26 -9 -7
  161 sprites/pcx/standard_trailers/medium_trailer_tandem.pcx 178 970 01 24 12 -9 -16
  162 sprites/pcx/standard_trailers/medium_trailer_tandem.pcx 210 970 09 20 26 -17 -7
  163 sprites/pcx/standard_trailers/medium_trailer_tandem.pcx 242 970 01 16 36 -30 -8
  164 sprites/pcx/standard_trailers/medium_trailer_tandem.pcx 290 970 09 20 26 -13 -10
  // Medium flat trailer - paper, loading  
  165 sprites/pcx/standard_trailers/medium_trailer_tandem.pcx 34 1130 01 24 12 -3 -10
  166 sprites/pcx/standard_trailers/medium_trailer_tandem.pcx 66 1130 09 20 26 -11 -9
  167 sprites/pcx/standard_trailers/medium_trailer_tandem.pcx 98 1130 01 16 36 -14 -6
  168 sprites/pcx/standard_trailers/medium_trailer_tandem.pcx 146 1130 09 20 26 -9 -7
  169 sprites/pcx/standard_trailers/medium_trailer_tandem.pcx 178 1130 01 24 12 -9 -16
  170 sprites/pcx/standard_trailers/medium_trailer_tandem.pcx 210 1130 09 20 26 -17 -7
  171 sprites/pcx/standard_trailers/medium_trailer_tandem.pcx 242 1130 01 16 36 -30 -8
  172 sprites/pcx/standard_trailers/medium_trailer_tandem.pcx 290 1130 09 20 26 -13 -10
  // Medium flat trailer - paper, loaded  
  173 sprites/pcx/standard_trailers/medium_trailer_tandem.pcx 34 1130 01 24 12 -3 -10
  174 sprites/pcx/standard_trailers/medium_trailer_tandem.pcx 66 1130 09 20 26 -11 -9
  175 sprites/pcx/standard_trailers/medium_trailer_tandem.pcx 98 1130 01 16 36 -14 -6
  176 sprites/pcx/standard_trailers/medium_trailer_tandem.pcx 146 1130 09 20 26 -9 -7
  177 sprites/pcx/standard_trailers/medium_trailer_tandem.pcx 178 1130 01 24 12 -9 -16
  178 sprites/pcx/standard_trailers/medium_trailer_tandem.pcx 210 1130 09 20 26 -17 -7
  179 sprites/pcx/standard_trailers/medium_trailer_tandem.pcx 242 1130 01 16 36 -30 -8
  180 sprites/pcx/standard_trailers/medium_trailer_tandem.pcx 290 1130 09 20 26 -13 -10
  // Medium stake trailer - empty
  181 sprites/pcx/standard_trailers/medium_trailer_tandem.pcx 34 610 01 24 12 -3 -10
  182 sprites/pcx/standard_trailers/medium_trailer_tandem.pcx 66 610 09 20 26 -11 -9
  183 sprites/pcx/standard_trailers/medium_trailer_tandem.pcx 98 610 01 16 36 -14 -6
  184 sprites/pcx/standard_trailers/medium_trailer_tandem.pcx 146 610 09 20 26 -9 -7
  185 sprites/pcx/standard_trailers/medium_trailer_tandem.pcx 178 610 01 24 12 -9 -16
  186 sprites/pcx/standard_trailers/medium_trailer_tandem.pcx 210 610 09 20 26 -17 -7
  187 sprites/pcx/standard_trailers/medium_trailer_tandem.pcx 242 610 01 16 36 -30 -8
  188 sprites/pcx/standard_trailers/medium_trailer_tandem.pcx 290 610 09 20 26 -13 -10
  // Medium stake trailer - Wood, loading  
  189 sprites/pcx/standard_trailers/medium_trailer_tandem.pcx 34 650 01 24 12 -3 -10
  190 sprites/pcx/standard_trailers/medium_trailer_tandem.pcx 66 650 09 20 26 -11 -9
  191 sprites/pcx/standard_trailers/medium_trailer_tandem.pcx 98 650 01 16 36 -14 -6
  192 sprites/pcx/standard_trailers/medium_trailer_tandem.pcx 146 650 09 20 26 -9 -7
  193 sprites/pcx/standard_trailers/medium_trailer_tandem.pcx 178 650 01 24 12 -9 -16
  194 sprites/pcx/standard_trailers/medium_trailer_tandem.pcx 210 650 09 20 26 -17 -7
  195 sprites/pcx/standard_trailers/medium_trailer_tandem.pcx 242 650 01 16 36 -30 -8
  196 sprites/pcx/standard_trailers/medium_trailer_tandem.pcx 290 650 09 20 26 -13 -10
  // Medium stake trailer - Wood, loaded  
  197 sprites/pcx/standard_trailers/medium_trailer_tandem.pcx 34 690 01 24 12 -3 -10
  198 sprites/pcx/standard_trailers/medium_trailer_tandem.pcx 66 690 09 20 26 -11 -9
  199 sprites/pcx/standard_trailers/medium_trailer_tandem.pcx 98 690 01 16 36 -14 -6
  200 sprites/pcx/standard_trailers/medium_trailer_tandem.pcx 146 690 09 20 26 -9 -7
  201 sprites/pcx/standard_trailers/medium_trailer_tandem.pcx 178 690 01 24 12 -9 -16
  202 sprites/pcx/standard_trailers/medium_trailer_tandem.pcx 210 690 09 20 26 -17 -7
  203 sprites/pcx/standard_trailers/medium_trailer_tandem.pcx 242 690 01 16 36 -30 -8
  204 sprites/pcx/standard_trailers/medium_trailer_tandem.pcx 290 690 09 20 26 -13 -10
 // Medium flat trailer - livestock, loading  
  205 sprites/pcx/standard_trailers/medium_trailer_tandem.pcx 34 810 01 24 12 -3 -10
  206 sprites/pcx/standard_trailers/medium_trailer_tandem.pcx 66 810 09 20 26 -11 -9
  207 sprites/pcx/standard_trailers/medium_trailer_tandem.pcx 98 810 01 16 36 -14 -6
  208 sprites/pcx/standard_trailers/medium_trailer_tandem.pcx 146 810 09 20 26 -9 -7
  209 sprites/pcx/standard_trailers/medium_trailer_tandem.pcx 178 810 01 24 12 -9 -16
  210 sprites/pcx/standard_trailers/medium_trailer_tandem.pcx 210 810 09 20 26 -17 -7
  211 sprites/pcx/standard_trailers/medium_trailer_tandem.pcx 242 810 01 16 36 -30 -8
  212 sprites/pcx/standard_trailers/medium_trailer_tandem.pcx 290 810 09 20 26 -13 -10
 // Medium flat trailer - livestock, loaded
  213 sprites/pcx/standard_trailers/medium_trailer_tandem.pcx 34 810 01 24 12 -3 -10
  214 sprites/pcx/standard_trailers/medium_trailer_tandem.pcx 66 810 09 20 26 -11 -9
  215 sprites/pcx/standard_trailers/medium_trailer_tandem.pcx 98 810 01 16 36 -14 -6
  216 sprites/pcx/standard_trailers/medium_trailer_tandem.pcx 146 810 09 20 26 -9 -7
  217 sprites/pcx/standard_trailers/medium_trailer_tandem.pcx 178 810 01 24 12 -9 -16
  218 sprites/pcx/standard_trailers/medium_trailer_tandem.pcx 210 810 09 20 26 -17 -7
  219 sprites/pcx/standard_trailers/medium_trailer_tandem.pcx 242 810 01 16 36 -30 -8
  220 sprites/pcx/standard_trailers/medium_trailer_tandem.pcx 290 810 09 20 26 -13 -10
 // Medium flat trailer - copper, loading  
  221 sprites/pcx/standard_trailers/medium_trailer_tandem.pcx 34 10 01 24 12 -3 -10
  222 sprites/pcx/standard_trailers/medium_trailer_tandem.pcx 66 10 09 20 26 -11 -9
  223 sprites/pcx/standard_trailers/medium_trailer_tandem.pcx 98 10 01 16 36 -14 -6
  224 sprites/pcx/standard_trailers/medium_trailer_tandem.pcx 146 10 09 20 26 -9 -7
  225 sprites/pcx/standard_trailers/medium_trailer_tandem.pcx 178 10 01 24 12 -9 -16
  226 sprites/pcx/standard_trailers/medium_trailer_tandem.pcx 210 10 09 20 26 -17 -7
  227 sprites/pcx/standard_trailers/medium_trailer_tandem.pcx 242 10 01 16 36 -30 -8
  228 sprites/pcx/standard_trailers/medium_trailer_tandem.pcx 290 10 09 20 26 -13 -10
 // Medium flat trailer - copper, loaded  
  229 sprites/pcx/standard_trailers/medium_trailer_tandem.pcx 34 10 01 24 12 -3 -10
  230 sprites/pcx/standard_trailers/medium_trailer_tandem.pcx 66 10 09 20 26 -11 -9
  231 sprites/pcx/standard_trailers/medium_trailer_tandem.pcx 98 10 01 16 36 -14 -6
  232 sprites/pcx/standard_trailers/medium_trailer_tandem.pcx 146 10 09 20 26 -9 -7
  233 sprites/pcx/standard_trailers/medium_trailer_tandem.pcx 178 10 01 24 12 -9 -16
  234 sprites/pcx/standard_trailers/medium_trailer_tandem.pcx 210 10 09 20 26 -17 -7
  235 sprites/pcx/standard_trailers/medium_trailer_tandem.pcx 242 10 01 16 36 -30 -8
  236 sprites/pcx/standard_trailers/medium_trailer_tandem.pcx 290 10 09 20 26 -13 -10
  237 * 17	 02 01 09  03 03   00 00  01 00  02 00    00 00  01 00  02 00
  238 * 17	 02 01 0B  03 03   00 00  03 00  04 00    00 00  03 00  04 00
  239 * 17	 02 01 07  03 03   05 00  06 00  07 00    05 00  06 00  07 00
  240 * 17	 02 01 04  03 03   00 00  07 00  08 00    00 00  07 00  08 00
  241 * 17	 02 01 18  03 03   00 00  09 00  0A 00    00 00  09 00  0A 00 
  242 * 17	 02 01 19  03 03   00 00  09 00  0B 00    00 00  09 00  0B 00 // copper ? 
  // Medium tank trailer
  243 * 4	 01 01 01 08
  244 sprites/pcx/standard_trailers/medium_trailer_tandem.pcx 34 10 01 24 12 -3 -10
  245 sprites/pcx/standard_trailers/medium_trailer_tandem.pcx 66 10 09 20 26 -11 -9
  246 sprites/pcx/standard_trailers/medium_trailer_tandem.pcx 98 10 01 16 36 -14 -6
  247 sprites/pcx/standard_trailers/medium_trailer_tandem.pcx 146 10 09 20 26 -9 -7
  248 sprites/pcx/standard_trailers/medium_trailer_tandem.pcx 178 10 01 24 12 -9 -16
  249 sprites/pcx/standard_trailers/medium_trailer_tandem.pcx 210 10 09 20 26 -17 -7
  250 sprites/pcx/standard_trailers/medium_trailer_tandem.pcx 242 10 01 16 36 -30 -8
  251 sprites/pcx/standard_trailers/medium_trailer_tandem.pcx 290 10 09 20 26 -13 -10
  252 * 9	 02 01 03   01 01    00 00    00 00
  // Var action 2 ID schema: B = bulk, C = Covered, F = Flat
  263 * 18	 02 01 AC  // text suffixes
                 81 F2 00 FF //
                 02 // range
                  00 80 00 00 // 
                  01 80 01 01 //  
                 FF 80
  // AB, AA contain some code to allow refit to multiple cargos, this is unused until additional sprites are drawn.
  264 * 18	 02 01 AB  // choose sprites according to refit
                 81 F2 00 FF //
                 02 // range
                  05 00 00 00 // 
                  05 00 01 01 // 
                 05 00 // default 
  265 * 14	 02 01 AA  // handle callbacks
                 81 0C 00 FF //
                 01 // range
                  04 80 11 11 // vehicle length CB
                  //AC 00 19 19 // text suffix CB 
                 05 00 // graphics
  266 * 52	 03 01 01 VEH_TRACTOR_MEDIUM_TRAILER // Action 3
    0F // Number of different cargo types to support
    01 01 00 // coal
    03 03 00 // oil
    04 04 00 // livestock
    06 06 00 // grain 
    07 07 00 // wood
    08 08 00 // iron ore
	  09 09 00 // steel
	  0B 0B 00 // paper
	  0E 0E 00 // copper ore
	  0F 03 00 // water
	  10 03 00 // rubber
    19 06 00 // sand (reuses grain)
	  1B 06 00 // wheat
	  1D 06 00 // maize
	  1E 07 00 // tropical wood
	  AA 00 // default (box trailer)

   // ------------ end of Tractor Medium Trailers ------------------ //
