// Hennigsdorf Industrial Tram (Electric)

#define THIS_VEH_ID           VEH_INDUSTRIAL_TRAM_STEAM_2
#define THIS_LENGTH_ADJUST    05
#define THIS_WAGON_TYPE       VEH_INDUSTRIAL_TRAM_WAGON_1
#define THIS_BUY_MENU_STR     STR_INFO_VEH_INDUSTRIAL_TRAM_STEAM_1
#define THIS_RUNCOST_REFIT_1  23 //don't escape, used in cb results which have problems with escaped bytes
#define THIS_RUNCOST_REFIT_2  2F
#define THIS_RUNCOST_REFIT_3  3B

#define THIS_SMOKE_TYPE 18 //actually sparks not smoke
#include "../templates/template_smoke.tnfo"

 -1 * 67	 00 01 \b26 01 VEH_INDUSTRIAL_TRAM_STEAM_2
    00 \w1-1-1920  // intro date (min value: 1-1-1920) (min value: 1920) 
    02 20     // reliability 
    03 \b35   // vehicle life 
    04 \b150  // class life 
    06 0F     // climate 
    07 00     // load amount 
    08 \b48   // speed in mph * 3.2
    09 1E     // running cost factor 
    0A 48 4C 00 00        // running cost base 
    0E FF     // sprite ID
    0F 00     // capacity
    10 FF     // cargo type
    11 1A     // cost factor
    12 20     // sound effect
    13 \b10    // power in 10 hp
    14 \b80   // weight in 1/4 tons
    15 \b12   // speed in mph * 0.8
    16 00 00 00 00     // Bit mask of cargo types available for refitting
    17 12     // Callback flags bit mask
    18 5A     // coefficient of TE
    1A 00     // Refit cost, using 25% of the purchase price cost base
    1B 00     // Retire vehicle early, this many years before the end of phase 2
    1C 03     // Miscellaneous vehicle flags 01 = tram, 02 = use 2CC
    1D FF 03       // Refittable cargo classes
    1E 01 00       // Non-refittable cargo classes
    1F \d685500    // Long format introduction date  
 -1 * 37	 04 01 7F 01 VEH_INDUSTRIAL_TRAM_STEAM_2 "0-6-0 Chemnitz Industrial Tram (Steam)" 00
// extra info text shared with 0-4-0 steam tram
-1 * 4	 01 01 02 08
  // Steam Locomotive Type 2 version A
 -1 sprites/graphics/industrial_tram_locomotives.png    0 160  01  18  8   -3 -12
 -1 sprites/graphics/industrial_tram_locomotives.png   16 160  09  16 20  -14  -5
 -1 sprites/graphics/industrial_tram_locomotives.png   48 160  01  12 28  -14  -6
 -1 sprites/graphics/industrial_tram_locomotives.png   96 160  09  16 20   -5  -5
 -1 sprites/graphics/industrial_tram_locomotives.png    0 160  01  18  8   -4 -12
 -1 sprites/graphics/industrial_tram_locomotives.png   16 160  09  16 20  -14  -6
 -1 sprites/graphics/industrial_tram_locomotives.png   48 160  01  12 28  -14  -6
 -1 sprites/graphics/industrial_tram_locomotives.png   96 160  09  16 20   -4  -6
  // Steam Locomotive Type 2 version B
 -1 sprites/graphics/industrial_tram_locomotives.png    0 180  01  18  8   -3 -12
 -1 sprites/graphics/industrial_tram_locomotives.png   16 180  09  16 20  -14  -5
 -1 sprites/graphics/industrial_tram_locomotives.png   48 180  01  12 28  -14  -6
 -1 sprites/graphics/industrial_tram_locomotives.png   96 180  09  16 20   -5  -5
 -1 sprites/graphics/industrial_tram_locomotives.png    0 180  01  18  8   -4 -12
 -1 sprites/graphics/industrial_tram_locomotives.png   16 180  09  16 20  -14  -6
 -1 sprites/graphics/industrial_tram_locomotives.png   48 180  01  12 28  -14  -6
 -1 sprites/graphics/industrial_tram_locomotives.png   96 180  09  16 20   -4  -6
 -1 * 9	 02 01 A1 // action2 defining graphics with no loading/loaded stages 
      01 // number loading states
      01 // number loaded states
      00 00 // loading sprites
      00 00 // loaded sprites
 -1 * 9	 02 01 A2 // action2 defining graphics with no loading/loaded stages 
      01 // number loading states
      01 // number loaded states
      01 00 // loading sprites
      01 00 // loaded sprites
 -1 * 4	 01 01 02 04 // buy menu sprites
 -1 * 1	 00
 -1 * 1	 00
 -1 sprites/graphics/industrial_tram_locomotives.png  256 160  01  12 36  -14  -6
 -1 * 1	 00
 -1 * 1	 00
 -1 * 1	 00
 -1 sprites/graphics/industrial_tram_locomotives.png  256 180  01  12 36  -14  -6
 -1 * 1	 00
 -1 * 9	 02 01 F1 // action2 buy menu sprites 
      01 // number loading states
      01 // number loaded states
      00 00 // loading sprites
      00 00 // loaded sprites
 -1 * 9	 02 01 F2 // action2 buy menu sprites 
      01 // number loading states
      01 // number loaded states
      01 00 // loading sprites
      01 00 // loaded sprites

 #include "../templates/template_industrial_tram_locomotives.tnfo"
