// Industrial Tram Wagon Medium

#define THIS_LENGTH_ADJUST    03
#define THIS_CAPACITY         1A // do this in hex - escapes are a hassle here for various reasons
   
 -1 * 67	 00 01 \b26 01 VEH_INDUSTRIAL_TRAM_WAGON_3 // Vehicle ID has to be less than 128 for articulated trailers
    00 \w1-1-1920   // intro date (min value: 1-1-1920)
    02 20           // reliability decay speed decay speed
    03 \b00         // vehicle life
    04 \b00         // class life
    06 00           // climate availability - use 0F for all, 00 none (to hide vehicle)
    07 10           // load amount 
    08 80           // speed in mph * 3.2
    09 1E           // running cost factor 
    0A 48 4C 00 00  // running cost base 
    0E FF           // sprite ID
    0F THIS_CAPACITY   // capacity
    10 01           // cargo type
    11 34           // cost factor
    12 17           // sound effect
    13 \b0          // power in 10 hp
    14 \b0          // weight in 1/4 tons
    15 \b00         // speed in mph * 0.8
    16 00 00 00 00    // Bit mask of cargo types available for refitting
    // flips 1D / 1E value
    17 22           // callback flags bit mask
    18 00           // coefficient of tractive effort (use 0 for trailers)
    1A 00           // refit cost, using 25% of the purchase price cost base
    1B 00           // retire vehicle early, this many years before the end of phase 2
    1C 03           // Miscellaneous vehicle flags 01 = tram, 02 = use 2CC
    1D FF 03        // refittable cargo classes
    1E 01 00        // non-refittable cargo classes
    1F 60 B3 0A 00  // long format introduction date  
 -1 * 35	 04 01 7F 01 VEH_INDUSTRIAL_TRAM_WAGON_3 "[Tram Wagon 3]" 00
 -1 * 33	 04 00 81 03 00 D0
            		" (104t in 4 wagons)" 00	// D000
               	" (234t in 9 wagons)" 00	// D001
               	" (390t in 15 wagons)" 00	// D002
  //action 2 ID 00 reserved for invisible sprite (provided by template) 
 -1 * 4	 01 01 \b08 \b08
   // empty
 -1 sprites/pcx/industrial_tram_wagons/industrial_tram_wagons_3.pcx    0 0  01  18  8   -3 -12
 -1 sprites/pcx/industrial_tram_wagons/industrial_tram_wagons_3.pcx   16 0  09  16 20  -14  -5
 -1 sprites/pcx/industrial_tram_wagons/industrial_tram_wagons_3.pcx   48 0  01  12 28  -13  -6
 -1 sprites/pcx/industrial_tram_wagons/industrial_tram_wagons_3.pcx   96 0  09  16 20   -5  -5
 -1 sprites/pcx/industrial_tram_wagons/industrial_tram_wagons_3.pcx    0 0  01  18  8   -4 -12
 -1 sprites/pcx/industrial_tram_wagons/industrial_tram_wagons_3.pcx   16 0  09  16 20  -14  -6
 -1 sprites/pcx/industrial_tram_wagons/industrial_tram_wagons_3.pcx   48 0  01  12 28  -13  -6
 -1 sprites/pcx/industrial_tram_wagons/industrial_tram_wagons_3.pcx   96 0  09  16 20   -4  -6
   // metal slab loading 1
 -1 sprites/pcx/industrial_tram_wagons/industrial_tram_wagons_3.pcx    0 0  01  18  8   -3 -12
 -1 sprites/pcx/industrial_tram_wagons/industrial_tram_wagons_3.pcx   16 0  09  16 20  -14  -5
 -1 sprites/pcx/industrial_tram_wagons/industrial_tram_wagons_3.pcx   48 0  01  12 28  -13  -6
 -1 sprites/pcx/industrial_tram_wagons/industrial_tram_wagons_3.pcx   96 0  09  16 20   -5  -5
 -1 sprites/pcx/industrial_tram_wagons/industrial_tram_wagons_3.pcx    0 0  01  18  8   -4 -12
 -1 sprites/pcx/industrial_tram_wagons/industrial_tram_wagons_3.pcx   16 0  09  16 20  -14  -6
 -1 sprites/pcx/industrial_tram_wagons/industrial_tram_wagons_3.pcx   48 0  01  12 28  -13  -6
 -1 sprites/pcx/industrial_tram_wagons/industrial_tram_wagons_3.pcx   96 0  09  16 20   -4  -6
   // metal slab loading 2
 -1 sprites/pcx/industrial_tram_wagons/industrial_tram_wagons_3.pcx    0 0  01  18  8   -3 -12
 -1 sprites/pcx/industrial_tram_wagons/industrial_tram_wagons_3.pcx   16 0  09  16 20  -14  -5
 -1 sprites/pcx/industrial_tram_wagons/industrial_tram_wagons_3.pcx   48 0  01  12 28  -13  -6
 -1 sprites/pcx/industrial_tram_wagons/industrial_tram_wagons_3.pcx   96 0  09  16 20   -5  -5
 -1 sprites/pcx/industrial_tram_wagons/industrial_tram_wagons_3.pcx    0 0  01  18  8   -4 -12
 -1 sprites/pcx/industrial_tram_wagons/industrial_tram_wagons_3.pcx   16 0  09  16 20  -14  -6
 -1 sprites/pcx/industrial_tram_wagons/industrial_tram_wagons_3.pcx   48 0  01  12 28  -13  -6
 -1 sprites/pcx/industrial_tram_wagons/industrial_tram_wagons_3.pcx   96 0  09  16 20   -4  -6
   // metal slab loading 3
 -1 sprites/pcx/industrial_tram_wagons/industrial_tram_wagons_3.pcx    0 0  01  18  8   -3 -12
 -1 sprites/pcx/industrial_tram_wagons/industrial_tram_wagons_3.pcx   16 0  09  16 20  -14  -5
 -1 sprites/pcx/industrial_tram_wagons/industrial_tram_wagons_3.pcx   48 0  01  12 28  -13  -6
 -1 sprites/pcx/industrial_tram_wagons/industrial_tram_wagons_3.pcx   96 0  09  16 20   -5  -5
 -1 sprites/pcx/industrial_tram_wagons/industrial_tram_wagons_3.pcx    0 0  01  18  8   -4 -12
 -1 sprites/pcx/industrial_tram_wagons/industrial_tram_wagons_3.pcx   16 0  09  16 20  -14  -6
 -1 sprites/pcx/industrial_tram_wagons/industrial_tram_wagons_3.pcx   48 0  01  12 28  -13  -6
 -1 sprites/pcx/industrial_tram_wagons/industrial_tram_wagons_3.pcx   96 0  09  16 20   -4  -6
   // metal slab loaded
 -1 sprites/pcx/industrial_tram_wagons/industrial_tram_wagons_3.pcx    0 0  01  18  8   -3 -12
 -1 sprites/pcx/industrial_tram_wagons/industrial_tram_wagons_3.pcx   16 0  09  16 20  -14  -5
 -1 sprites/pcx/industrial_tram_wagons/industrial_tram_wagons_3.pcx   48 0  01  12 28  -13  -6
 -1 sprites/pcx/industrial_tram_wagons/industrial_tram_wagons_3.pcx   96 0  09  16 20   -5  -5
 -1 sprites/pcx/industrial_tram_wagons/industrial_tram_wagons_3.pcx    0 0  01  18  8   -4 -12
 -1 sprites/pcx/industrial_tram_wagons/industrial_tram_wagons_3.pcx   16 0  09  16 20  -14  -6
 -1 sprites/pcx/industrial_tram_wagons/industrial_tram_wagons_3.pcx   48 0  01  12 28  -13  -6
 -1 sprites/pcx/industrial_tram_wagons/industrial_tram_wagons_3.pcx   96 0  09  16 20   -4  -6
   // scrap empty
 -1 sprites/pcx/industrial_tram_wagons/industrial_tram_wagons_3.pcx    0 0  01  18  8   -3 -12
 -1 sprites/pcx/industrial_tram_wagons/industrial_tram_wagons_3.pcx   16 0  09  16 20  -14  -5
 -1 sprites/pcx/industrial_tram_wagons/industrial_tram_wagons_3.pcx   48 0  01  12 28  -13  -6
 -1 sprites/pcx/industrial_tram_wagons/industrial_tram_wagons_3.pcx   96 0  09  16 20   -5  -5
 -1 sprites/pcx/industrial_tram_wagons/industrial_tram_wagons_3.pcx    0 0  01  18  8   -4 -12
 -1 sprites/pcx/industrial_tram_wagons/industrial_tram_wagons_3.pcx   16 0  09  16 20  -14  -6
 -1 sprites/pcx/industrial_tram_wagons/industrial_tram_wagons_3.pcx   48 0  01  12 28  -13  -6
 -1 sprites/pcx/industrial_tram_wagons/industrial_tram_wagons_3.pcx   96 0  09  16 20   -4  -6
  // scrap loading
 -1 sprites/pcx/industrial_tram_wagons/industrial_tram_wagons_3.pcx    0 0  01  18  8   -3 -12
 -1 sprites/pcx/industrial_tram_wagons/industrial_tram_wagons_3.pcx   16 0  09  16 20  -14  -5
 -1 sprites/pcx/industrial_tram_wagons/industrial_tram_wagons_3.pcx   48 0  01  12 28  -13  -6
 -1 sprites/pcx/industrial_tram_wagons/industrial_tram_wagons_3.pcx   96 0  09  16 20   -5  -5
 -1 sprites/pcx/industrial_tram_wagons/industrial_tram_wagons_3.pcx    0 0  01  18  8   -4 -12
 -1 sprites/pcx/industrial_tram_wagons/industrial_tram_wagons_3.pcx   16 0  09  16 20  -14  -6
 -1 sprites/pcx/industrial_tram_wagons/industrial_tram_wagons_3.pcx   48 0  01  12 28  -13  -6
 -1 sprites/pcx/industrial_tram_wagons/industrial_tram_wagons_3.pcx   96 0  09  16 20   -4  -6
   // scrap loaded
 -1 sprites/pcx/industrial_tram_wagons/industrial_tram_wagons_3.pcx    0 0  01  18  8   -3 -12
 -1 sprites/pcx/industrial_tram_wagons/industrial_tram_wagons_3.pcx   16 0  09  16 20  -14  -5
 -1 sprites/pcx/industrial_tram_wagons/industrial_tram_wagons_3.pcx   48 0  01  12 28  -13  -6
 -1 sprites/pcx/industrial_tram_wagons/industrial_tram_wagons_3.pcx   96 0  09  16 20   -5  -5
 -1 sprites/pcx/industrial_tram_wagons/industrial_tram_wagons_3.pcx    0 0  01  18  8   -4 -12
 -1 sprites/pcx/industrial_tram_wagons/industrial_tram_wagons_3.pcx   16 0  09  16 20  -14  -6
 -1 sprites/pcx/industrial_tram_wagons/industrial_tram_wagons_3.pcx   48 0  01  12 28  -13  -6
 -1 sprites/pcx/industrial_tram_wagons/industrial_tram_wagons_3.pcx   96 0  09  16 20   -4  -6
  -1 * 17	 02 01 01
      04 // number loaded states
      04 // number loading states
      00 00  01 00  02 00  04 00 // loaded sprites
      00 00  01 00  02 00  03 00 // loading sprites     
 -1 * 17	 02 01 02
      03 // number loaded states
      03 // number loading states
      05 00  06 00  07 00 // loaded sprites
      05 00  06 00  07 00 // loading sprites     
 
// Template for Industrial Tram Wagons varaction 2 chain and action 3

 -1 * 4	 01 01 \b01 \b08
// invisible sprites 
 -1 sprites/pcx/industrial_tram_wagons/industrial_tram_wagons_3.pcx    0 0  01  01  01   0 0
 -1 sprites/pcx/industrial_tram_wagons/industrial_tram_wagons_3.pcx    0 0  01  01  01   0 0
 -1 sprites/pcx/industrial_tram_wagons/industrial_tram_wagons_3.pcx    0 0  01  01  01   0 0
 -1 sprites/pcx/industrial_tram_wagons/industrial_tram_wagons_3.pcx    0 0  01  01  01   0 0
 -1 sprites/pcx/industrial_tram_wagons/industrial_tram_wagons_3.pcx    0 0  01  01  01   0 0
 -1 sprites/pcx/industrial_tram_wagons/industrial_tram_wagons_3.pcx    0 0  01  01  01   0 0
 -1 sprites/pcx/industrial_tram_wagons/industrial_tram_wagons_3.pcx    0 0  01  01  01   0 0
 -1 sprites/pcx/industrial_tram_wagons/industrial_tram_wagons_3.pcx    0 0  01  01  01   0 0
  -1 * 17	 02 01 00
      01 // number loaded states
      01 // number loading states
      00 00 // loaded sprites
      00 00 // loading sprites 
      
      
// choose appropriate sprites
  // case show wagon sprite
  -1 * 70	 02 01 A3  // choose sprites according to cargo slot (in cargo translation tt)
                 81 47 00 FF // var 47 in format ccccwwtt where I want tt 
                 01 // range
                   01 00  01 01 // coal
                 01 00 // default 
  -1 * 18	 02 01 A2  // shorten wagon length to 1/8 and show sprites
                 81 0C 00 FF //
                 01 // range
                   07 80  11 11 // vehicle length CB
                 A3 00 // graphics  
  -1 * 18	 02 01 A1  // shorten wagon length to vehicle length and show sprites
                 81 0C 00 FF //
                 01 // range
                   THIS_LENGTH_ADJUST 80  11 11 // vehicle length CB
                 A3 00 // graphics  
  // case hide wagon sprite
  -1 * 18	 02 01 AA  // shorten wagon length by max amount 
                 81 0C 00 FF //
                 01 // range
                   07 80  11 11 // vehicle length CB
                 00 00 // graphics  

  
  -1 * 14	 02 01 B2  // subtype 3 (15 wagons) - choose sprites according to position in consist 
                 81 40 00 FF // var 40 in format 00nnbbff where I want ff; results begin at 0 (lead vehicle)
                 \b01 // range
                   A1 00  \b01 \b15 //
                 AA 00 // default - use invisible sprite
  -1 * 14	 02 01 B1  // subtype 2 (9 wagons) - choose sprites according to position in consist 
                 81 40 00 FF // var 40 in format 00nnbbff where I want ff; results begin at 0 (lead vehicle)
                 \b02 // range
                   A1 00  \b01 \b09 // 
                   AA 00  \b10 \b15 //
                 AA 00 // default - use invisible sprite
  -1 * 14	 02 01 B0  // subtype 1 (3 wagons) - choose sprites according to position in consist 
                 81 40 00 FF // var 40 in format 00nnbbff where I want ff; results begin at 0 (lead vehicle)
                 \b04 // range
                   AA 00  \b01 \b05 // 
                   A1 00  \b06 \b08 //                    
                   A2 00  \b09 \b09 //
                   AA 00  \b10 \b15 //
                 AA 00 // default - use invisible sprite
                 
  -1 * 18	 02 01 A0  // choose sprites according to refitted subtype
                 81 F2 00 FF //
                 \b03 // range
                   B0 00  \b00 \b00 // subtype 1 
                   B1 00  \b01 \b01 // subtype 2
                   B2 00  \b02 \b02 // subtype 2
                 B0 00 // default 
                 
// handle refitting
  -1 * 18	 02 01 EB  // handle refit - check property type cb requires
                 81 10 00 FF //
                 \b01 // range
                   00 80  0F 0F  // set capacity 0t
                 00 80 // default
  -1 * 18	 02 01 EA  // handle refit - check property type cb requires
                 81 10 00 FF //
                 \b01 // range
                   THIS_CAPACITY 80  0F 0F // set capacity to vehicle capacity
                 00 80 // default

  -1 * 14	 02 01 E3  // subtype 3 (15 wagons) - branch according to position in consist 
                 81 40 00 FF // var 40 in format 00nnbbff where I want ff; results begin at 0 (lead vehicle)
                 \b01 // range
                   EA 00  \b01 \b15 //
                 EB 00 // default
  -1 * 14	 02 01 E2  // subtype 2 (9 wagons) - branch according to position in consist 
                 81 40 00 FF // var 40 in format 00nnbbff where I want ff; results begin at 0 (lead vehicle)
                 \b01 // range
                   EA 00  \b01 \b09 //
                 EB 00 // default 
  -1 * 14	 02 01 E1  // subtype 1 (4 wagons) - branch according to position in consist 
                 81 40 00 FF // var 40 in format 00nnbbff where I want ff; results begin at 0 (lead vehicle)
                 \b01 // range
                   EA 00  \b01 \b03 //
                 EB 00 // default
                 
   -1 * 18	 02 01 E0  // handle property change on refit - check current subtype
                 81 F2 00 FF //
                 03 // range
                   E1 00  \b00 \b00 
                   E2 00  \b01 \b01 
                   E3 00  \b02 \b02 
                 FF 80 // default - end cb chain

// text strings
    -1 * 18	 02 01 D0  // set refit text strings
                 81 F2 00 FF //
                 03 // range
                   00 80  00 00 
                   01 80  01 01 
                   02 80  02 02 
                 FF 80 // end callback chain

// handle callbacks etc
  -1 * 18	 02 01 C0  // handle callbacks
                 81 0C 00 FF //
                 02 // range
                   E0 00  36 36 // change vehicle properties
                   D0 00  19 19 // text suffix CB 
                 A0 00 // graphics  
                 
 -1 * 7	 03 01 01 VEH_INDUSTRIAL_TRAM_WAGON_3 // Action 3
    00 // Number of cargo types 
	  C0 00 // default
	  
#undef THIS_CAPACITY
#undef THIS_LENGTH_ADJUST 

 