  // -------------- Belly Dump Trailers for Mining Trucks --------------- //
   // Medium belly dump trailer 
   // Used by Thunder Mountain articulated dump truck
 1810 * 67	 00 01 1A 01 06
    00 00 00  // intro date (min value: 1-1-1920) 
    02 20     // reliability 
    03 11     // vehicle life 
    04 23     // class life 
    06 00     // climate 
    07 05     // load amount 
    08 80     // speed in mph * 3.2
    09 1E     // running cost factor 
    0A 48 4C 00 00    // running cost base 
    0E FF     // sprite ID
    0F \b90     // capacity
    10 FF     // cargo type
    11 34     // cost factor
    12 17     // sound effect
    13 \b0     // power in 10 hp
    14 \b96     // weight in 1/4 tons
    15 \b48     // speed in mph * 0.8
    16 40 00 00 28     // Bit mask of cargo types available for refitting
    // flips 1D / 1E values: excludes grain, wheat, maize
    17 16     // callback flags bit mask
    18 00             // coefficient of tractive effort (use 0 for trailers)
    1A 00     // refit cost, using 25% of the purchase price cost base
    1B 00     // retire vehicle early, this many years before the end of phase 2
    1C 02     // Miscellaneous vehicle flags 01 = tram, 02 = use 2CC
    1D 10 00          // refittable cargo classes
    1E EF 03          // non-refittable cargo classes
    1F 60 B3 0A 00    // long format introduction date  
 1811 * 6	 07 83 01 \7! 02 01 // tropic only
 1812 * 7	 00 01 01 01 06 10 08// copper ore default
 1813 * 23	 04 01 7F 01 06 "Medium Belly Dump" 00
   // Medium belly dump A (rear wheels only) - empty
 1814 * 4	 01 01 0D 08
 1815 sprites/pcx/standard_trailers/mining_truck_trailer_medium_A.pcx 34 50 01 24 12 -3 -16
 1816 sprites/pcx/standard_trailers/mining_truck_trailer_medium_A.pcx 66 50 09 20 26 -14 -7
 1817 sprites/pcx/standard_trailers/mining_truck_trailer_medium_A.pcx 98 50 01 16 36 -14 -8
 1818 sprites/pcx/standard_trailers/mining_truck_trailer_medium_A.pcx 146 50 09 20 26 -10 -8
 1819 sprites/pcx/standard_trailers/mining_truck_trailer_medium_A.pcx 178 50 01 24 12 -9 -16
 1820 sprites/pcx/standard_trailers/mining_truck_trailer_medium_A.pcx 210 50 09 20 26 -17 -8
 1821 sprites/pcx/standard_trailers/mining_truck_trailer_medium_A.pcx 242 50 01 16 36 -26 -9
 1822 sprites/pcx/standard_trailers/mining_truck_trailer_medium_A.pcx 290 50 09 20 26 -10 -10
   // Medium belly dump A (rear wheels only) - iron ore, loading
 1823 sprites/pcx/standard_trailers/mining_truck_trailer_medium_A.pcx 34 490 01 24 12 -3 -16
 1824 sprites/pcx/standard_trailers/mining_truck_trailer_medium_A.pcx 66 490 09 20 20 -14 -7
 1825 sprites/pcx/standard_trailers/mining_truck_trailer_medium_A.pcx 98 490 01 16 36 -14 -8
 1826 sprites/pcx/standard_trailers/mining_truck_trailer_medium_A.pcx 146 490 09 20 26 -10 -8
 1827 sprites/pcx/standard_trailers/mining_truck_trailer_medium_A.pcx 178 490 01 24 12 -9 -16
 1828 sprites/pcx/standard_trailers/mining_truck_trailer_medium_A.pcx 210 490 09 20 26 -17 -8
 1829 sprites/pcx/standard_trailers/mining_truck_trailer_medium_A.pcx 242 490 01 16 36 -26 -9
 1830 sprites/pcx/standard_trailers/mining_truck_trailer_medium_A.pcx 290 490 09 20 26 -10 -10
   // Medium belly dump A (rear wheels only) - iron ore, loaded
 1831 sprites/pcx/standard_trailers/mining_truck_trailer_medium_A.pcx 34 530 01 24 12 -3 -16
 1832 sprites/pcx/standard_trailers/mining_truck_trailer_medium_A.pcx 66 530 09 20 20 -14 -7
 1833 sprites/pcx/standard_trailers/mining_truck_trailer_medium_A.pcx 98 530 01 16 36 -14 -8
 1834 sprites/pcx/standard_trailers/mining_truck_trailer_medium_A.pcx 146 530 09 20 26 -10 -8
 1835 sprites/pcx/standard_trailers/mining_truck_trailer_medium_A.pcx 178 530 01 24 12 -9 -16
 1836 sprites/pcx/standard_trailers/mining_truck_trailer_medium_A.pcx 210 530 09 20 26 -17 -8
 1837 sprites/pcx/standard_trailers/mining_truck_trailer_medium_A.pcx 242 530 01 16 36 -26 -9
 1838 sprites/pcx/standard_trailers/mining_truck_trailer_medium_A.pcx 290 530 09 20 26 -10 -10
   // Medium belly dump A (rear wheels only) - coal, loading
 1839 sprites/pcx/standard_trailers/mining_truck_trailer_medium_A.pcx 34 170 01 24 12 -3 -16
 1840 sprites/pcx/standard_trailers/mining_truck_trailer_medium_A.pcx 66 170 09 20 26 -14 -7
 1841 sprites/pcx/standard_trailers/mining_truck_trailer_medium_A.pcx 98 170 01 16 36 -14 -8
 1842 sprites/pcx/standard_trailers/mining_truck_trailer_medium_A.pcx 146 170 09 20 26 -10 -8
 1843 sprites/pcx/standard_trailers/mining_truck_trailer_medium_A.pcx 178 170 01 24 12 -9 -16
 1844 sprites/pcx/standard_trailers/mining_truck_trailer_medium_A.pcx 210 170 09 20 26 -17 -8
 1845 sprites/pcx/standard_trailers/mining_truck_trailer_medium_A.pcx 242 170 01 16 36 -26 -9
 1846 sprites/pcx/standard_trailers/mining_truck_trailer_medium_A.pcx 290 170 09 20 26 -10 -10
   // Medium belly dump A (rear wheels only) - coal, loaded
 1847 sprites/pcx/standard_trailers/mining_truck_trailer_medium_A.pcx 34 210 01 24 12 -3 -16
 1848 sprites/pcx/standard_trailers/mining_truck_trailer_medium_A.pcx 66 210 09 20 26 -14 -7
 1849 sprites/pcx/standard_trailers/mining_truck_trailer_medium_A.pcx 98 210 01 16 36 -14 -8
 1850 sprites/pcx/standard_trailers/mining_truck_trailer_medium_A.pcx 146 210 09 20 26 -10 -8
 1851 sprites/pcx/standard_trailers/mining_truck_trailer_medium_A.pcx 178 210 01 24 12 -9 -16
 1852 sprites/pcx/standard_trailers/mining_truck_trailer_medium_A.pcx 210 210 09 20 26 -17 -8
 1853 sprites/pcx/standard_trailers/mining_truck_trailer_medium_A.pcx 242 210 01 16 36 -26 -9
 1854 sprites/pcx/standard_trailers/mining_truck_trailer_medium_A.pcx 290 210 09 20 26 -10 -10
   // Medium belly dump A (rear wheels only) - sand, loading
 1855 sprites/pcx/standard_trailers/mining_truck_trailer_medium_A.pcx 34 250 01 24 12 -3 -16
 1856 sprites/pcx/standard_trailers/mining_truck_trailer_medium_A.pcx 66 250 09 20 26 -14 -7
 1857 sprites/pcx/standard_trailers/mining_truck_trailer_medium_A.pcx 98 250 01 16 36 -14 -8
 1858 sprites/pcx/standard_trailers/mining_truck_trailer_medium_A.pcx 146 250 09 20 26 -10 -8
 1859 sprites/pcx/standard_trailers/mining_truck_trailer_medium_A.pcx 178 250 01 24 12 -9 -16
 1860 sprites/pcx/standard_trailers/mining_truck_trailer_medium_A.pcx 210 250 09 20 26 -17 -8
 1861 sprites/pcx/standard_trailers/mining_truck_trailer_medium_A.pcx 242 250 01 16 36 -26 -9
 1862 sprites/pcx/standard_trailers/mining_truck_trailer_medium_A.pcx 290 250 09 20 26 -10 -10
  // Medium belly dump A (rear wheels only) - sand, loaded
 1863 sprites/pcx/standard_trailers/mining_truck_trailer_medium_A.pcx 34 290 01 24 12 -3 -16
 1864 sprites/pcx/standard_trailers/mining_truck_trailer_medium_A.pcx 66 290 09 20 26 -14 -7
 1865 sprites/pcx/standard_trailers/mining_truck_trailer_medium_A.pcx 98 290 01 16 36 -14 -8
 1866 sprites/pcx/standard_trailers/mining_truck_trailer_medium_A.pcx 146 290 09 20 26 -10 -8
 1867 sprites/pcx/standard_trailers/mining_truck_trailer_medium_A.pcx 178 290 01 24 12 -9 -16
 1868 sprites/pcx/standard_trailers/mining_truck_trailer_medium_A.pcx 210 290 09 20 26 -17 -8
 1869 sprites/pcx/standard_trailers/mining_truck_trailer_medium_A.pcx 242 290 01 16 36 -26 -9
 1870 sprites/pcx/standard_trailers/mining_truck_trailer_medium_A.pcx 290 290 09 20 26 -10 -10
  // Medium belly dump A (rear wheels only) - brown, loading
 1871 sprites/pcx/standard_trailers/mining_truck_trailer_medium_A.pcx 34 410 01 24 12 -3 -16
 1872 sprites/pcx/standard_trailers/mining_truck_trailer_medium_A.pcx 66 410 09 20 26 -14 -7
 1873 sprites/pcx/standard_trailers/mining_truck_trailer_medium_A.pcx 98 410 01 16 36 -14 -8
 1874 sprites/pcx/standard_trailers/mining_truck_trailer_medium_A.pcx 146 410 09 20 26 -10 -8
 1875 sprites/pcx/standard_trailers/mining_truck_trailer_medium_A.pcx 178 410 01 24 12 -9 -16
 1876 sprites/pcx/standard_trailers/mining_truck_trailer_medium_A.pcx 210 410 09 20 26 -17 -8
 1877 sprites/pcx/standard_trailers/mining_truck_trailer_medium_A.pcx 242 410 01 16 36 -26 -9
 1878 sprites/pcx/standard_trailers/mining_truck_trailer_medium_A.pcx 290 410 09 20 26 -10 -10
  // Medium belly dump A (rear wheels only) - brown, loaded
 1879 sprites/pcx/standard_trailers/mining_truck_trailer_medium_A.pcx 34 450 01 24 12 -3 -16
 1880 sprites/pcx/standard_trailers/mining_truck_trailer_medium_A.pcx 66 450 09 20 26 -14 -7
 1881 sprites/pcx/standard_trailers/mining_truck_trailer_medium_A.pcx 98 450 01 16 36 -14 -8
 1882 sprites/pcx/standard_trailers/mining_truck_trailer_medium_A.pcx 146 450 09 20 26 -10 -8
 1883 sprites/pcx/standard_trailers/mining_truck_trailer_medium_A.pcx 178 450 01 24 12 -9 -16
 1884 sprites/pcx/standard_trailers/mining_truck_trailer_medium_A.pcx 210 450 09 20 26 -17 -8
 1885 sprites/pcx/standard_trailers/mining_truck_trailer_medium_A.pcx 242 450 01 16 36 -26 -9
 1886 sprites/pcx/standard_trailers/mining_truck_trailer_medium_A.pcx 290 450 09 20 26 -10 -10
  // Medium belly dump A (rear wheels only) - red, loading
 1887 sprites/pcx/standard_trailers/mining_truck_trailer_medium_A.pcx 34 370 01 24 12 -3 -16
 1888 sprites/pcx/standard_trailers/mining_truck_trailer_medium_A.pcx 66 370 09 20 26 -14 -7
 1889 sprites/pcx/standard_trailers/mining_truck_trailer_medium_A.pcx 98 370 01 16 36 -14 -8
 1890 sprites/pcx/standard_trailers/mining_truck_trailer_medium_A.pcx 146 370 09 20 26 -10 -8
 1891 sprites/pcx/standard_trailers/mining_truck_trailer_medium_A.pcx 178 370 01 24 12 -9 -16
 1892 sprites/pcx/standard_trailers/mining_truck_trailer_medium_A.pcx 210 370 09 20 26 -17 -8
 1893 sprites/pcx/standard_trailers/mining_truck_trailer_medium_A.pcx 242 370 01 16 36 -26 -9
 1894 sprites/pcx/standard_trailers/mining_truck_trailer_medium_A.pcx 290 370 09 20 26 -10 -10
  // Medium belly dump A (rear wheels only) - red, loaded
 1895 sprites/pcx/standard_trailers/mining_truck_trailer_medium_A.pcx 34 370 01 24 12 -3 -16
 1896 sprites/pcx/standard_trailers/mining_truck_trailer_medium_A.pcx 66 370 09 20 26 -14 -7
 1897 sprites/pcx/standard_trailers/mining_truck_trailer_medium_A.pcx 98 370 01 16 36 -14 -8
 1898 sprites/pcx/standard_trailers/mining_truck_trailer_medium_A.pcx 146 370 09 20 26 -10 -8
 1899 sprites/pcx/standard_trailers/mining_truck_trailer_medium_A.pcx 178 370 01 24 12 -9 -16
 1900 sprites/pcx/standard_trailers/mining_truck_trailer_medium_A.pcx 210 370 09 20 26 -17 -8
 1901 sprites/pcx/standard_trailers/mining_truck_trailer_medium_A.pcx 242 370 01 16 36 -26 -9
 1902 sprites/pcx/standard_trailers/mining_truck_trailer_medium_A.pcx 290 370 09 20 26 -10 -10
  // Medium belly dump A (rear wheels only) - grey, loading
 1903 sprites/pcx/standard_trailers/mining_truck_trailer_medium_A.pcx 34 90 01 24 12 -3 -16
 1904 sprites/pcx/standard_trailers/mining_truck_trailer_medium_A.pcx 66 90 09 20 26 -14 -7
 1905 sprites/pcx/standard_trailers/mining_truck_trailer_medium_A.pcx 98 90 01 16 36 -14 -8
 1906 sprites/pcx/standard_trailers/mining_truck_trailer_medium_A.pcx 146 90 09 20 26 -10 -8
 1907 sprites/pcx/standard_trailers/mining_truck_trailer_medium_A.pcx 178 90 01 24 12 -9 -16
 1908 sprites/pcx/standard_trailers/mining_truck_trailer_medium_A.pcx 210 90 09 20 26 -17 -8
 1909 sprites/pcx/standard_trailers/mining_truck_trailer_medium_A.pcx 242 90 01 16 36 -26 -9
 1910 sprites/pcx/standard_trailers/mining_truck_trailer_medium_A.pcx 290 90 09 20 26 -10 -10
  // Medium belly dump A (rear wheels only) - grey, loaded
 1911 sprites/pcx/standard_trailers/mining_truck_trailer_medium_A.pcx 34 130 01 24 12 -3 -16
 1912 sprites/pcx/standard_trailers/mining_truck_trailer_medium_A.pcx 66 130 09 20 26 -14 -7
 1913 sprites/pcx/standard_trailers/mining_truck_trailer_medium_A.pcx 98 130 01 16 36 -14 -8
 1914 sprites/pcx/standard_trailers/mining_truck_trailer_medium_A.pcx 146 130 09 20 26 -10 -8
 1915 sprites/pcx/standard_trailers/mining_truck_trailer_medium_A.pcx 178 130 01 24 12 -9 -16
 1916 sprites/pcx/standard_trailers/mining_truck_trailer_medium_A.pcx 210 130 09 20 26 -17 -8
 1917 sprites/pcx/standard_trailers/mining_truck_trailer_medium_A.pcx 242 130 01 16 36 -26 -9
 1918 sprites/pcx/standard_trailers/mining_truck_trailer_medium_A.pcx 290 130 09 20 26 -10 -10
 // Action 2 ID schema: 0 / 1 = rear wheels only, 2 / 3 = with front wheels  
 1919 * 17	 02 01 08  03 03    00 00  01 00  02 00    00 00  01 00  02 00 // iron ore
 1920 * 17	 02 01 01  03 03    00 00  03 00  04 00    00 00  03 00  04 00 // coal
 1921 * 17	 02 01 06  03 03    00 00  05 00  06 00    00 00  05 00  06 00 // sand
 1922 * 17	 02 01 0E  03 03    00 00  07 00  08 00    00 00  07 00  08 00 // brown 
 1923 * 17	 02 01 17  03 03    00 00  09 00  0A 00    00 00  09 00  0A 00 // red
 1924 * 17	 02 01 11  03 03    00 00  0B 00  0C 00    00 00  0B 00  0C 00 // grey
 1925 * 26	 02 01 CD // choose belly dump A sprites according to cargo slot (in cargo translation tt)
                 81 47 00 FF // var 47 in format ccccwwtt where I want tt 
                 06 // range
                  01 00  01 01 // COAL (format is: ID | cargo) 
                  08 00  08 08 // IORE
                  17 00  0E 0E // CORE
                  17 00  18 18 // AORE (bauxite)
                  06 00  19 19 // SAND
                  11 00  1A 1A // GRVL
                 11 00 // default 
 1926 * 7	 03 01 01 06 // Action 3
      00  // Number of different cargo types to support  
      CD 00 // default

   // Large belly dump trailer
   // Used by large articulated mining trucks
 1927 * 67	 00 01 1A 01 07
    00 00 00  // intro date (min value: 1-1-1920) 
    02 20     // reliability 
    03 11     // vehicle life 
    04 23     // class life 
    06 00     // climate 
    07 05     // load amount 
    08 80     // speed in mph * 3.2
    09 1E     // running cost factor 
    0A 48 4C 00 00    // running cost base 
    0E FF     // sprite ID
    0F \b120     // capacity
    10 FF     // cargo type
    11 34     // cost factor
    12 17     // sound effect
    13 \b0     // power in 10 hp
    14 \b132     // weight in 1/4 tons
    15 \b48     // speed in mph * 0.8
    16 40 00 00 28     // Bit mask of cargo types available for refitting
    // flips 1D / 1E values: excludes grain, wheat, maize
    17 16     // Callback flags bit mask
    18 00             // coefficient of tractive effort (use 0 for trailers)
    1A 00     // Refit cost, using 25% of the purchase price cost base
    1B 00     // Retire vehicle early, this many years before the end of phase 2
    1C 02     // Miscellaneous vehicle flags 01 = tram, 02 = use 2CC
    1D 10 00          // Refittable cargo classes
    1E EF 03          // Non-refittable cargo classes
    1F 60 B3 0A 00    // Long format introduction date  
 1928 * 6	 07 83 01 \7! 02 01 // tropic only
 1929 * 7	 00 01 01 01 07 10 08// copper ore default
 1930 * 22	 04 01 7F 01 07 "Large Belly Dump" 00
   // Large belly dump A (rear wheels only) - empty
 1931 * 4	 01 01 0D 08
 1932 sprites/pcx/standard_trailers/mining_truck_trailer_large_A.pcx 34 50 01 24 12 -3 -16
 1933 sprites/pcx/standard_trailers/mining_truck_trailer_large_A.pcx 66 50 09 20 26 -14 -7
 1934 sprites/pcx/standard_trailers/mining_truck_trailer_large_A.pcx 98 50 01 16 36 -14 -8
 1935 sprites/pcx/standard_trailers/mining_truck_trailer_large_A.pcx 146 50 09 20 26 -10 -8
 1936 sprites/pcx/standard_trailers/mining_truck_trailer_large_A.pcx 178 50 01 24 12 -9 -16
 1937 sprites/pcx/standard_trailers/mining_truck_trailer_large_A.pcx 210 50 09 20 26 -17 -8
 1938 sprites/pcx/standard_trailers/mining_truck_trailer_large_A.pcx 242 50 01 16 36 -26 -9
 1939 sprites/pcx/standard_trailers/mining_truck_trailer_large_A.pcx 290 50 09 20 26 -10 -10
   // Large belly dump A (rear wheels only) - iron ore, loading
 1940 sprites/pcx/standard_trailers/mining_truck_trailer_large_A.pcx 34 490 01 24 12 -3 -16
 1941 sprites/pcx/standard_trailers/mining_truck_trailer_large_A.pcx 66 490 09 20 20 -14 -7
 1942 sprites/pcx/standard_trailers/mining_truck_trailer_large_A.pcx 98 490 01 16 36 -14 -8
 1943 sprites/pcx/standard_trailers/mining_truck_trailer_large_A.pcx 146 490 09 20 26 -10 -8
 1944 sprites/pcx/standard_trailers/mining_truck_trailer_large_A.pcx 178 490 01 24 12 -9 -16
 1945 sprites/pcx/standard_trailers/mining_truck_trailer_large_A.pcx 210 490 09 20 26 -17 -8
 1946 sprites/pcx/standard_trailers/mining_truck_trailer_large_A.pcx 242 490 01 16 36 -26 -9
 1947 sprites/pcx/standard_trailers/mining_truck_trailer_large_A.pcx 290 490 09 20 26 -10 -10
   // Large belly dump A (rear wheels only) - iron ore, loaded
 1948 sprites/pcx/standard_trailers/mining_truck_trailer_large_A.pcx 34 530 01 24 12 -3 -16
 1949 sprites/pcx/standard_trailers/mining_truck_trailer_large_A.pcx 66 530 09 20 20 -14 -7
 1950 sprites/pcx/standard_trailers/mining_truck_trailer_large_A.pcx 98 530 01 16 36 -14 -8
 1951 sprites/pcx/standard_trailers/mining_truck_trailer_large_A.pcx 146 530 09 20 26 -10 -8
 1952 sprites/pcx/standard_trailers/mining_truck_trailer_large_A.pcx 178 530 01 24 12 -9 -16
 1953 sprites/pcx/standard_trailers/mining_truck_trailer_large_A.pcx 210 530 09 20 26 -17 -8
 1954 sprites/pcx/standard_trailers/mining_truck_trailer_large_A.pcx 242 530 01 16 36 -26 -9
 1955 sprites/pcx/standard_trailers/mining_truck_trailer_large_A.pcx 290 530 09 20 26 -10 -10
   // Large belly dump A (rear wheels only) - coal, loading
 1956 sprites/pcx/standard_trailers/mining_truck_trailer_large_A.pcx 34 170 01 24 12 -3 -16
 1957 sprites/pcx/standard_trailers/mining_truck_trailer_large_A.pcx 66 170 09 20 26 -14 -7
 1958 sprites/pcx/standard_trailers/mining_truck_trailer_large_A.pcx 98 170 01 16 36 -14 -8
 1959 sprites/pcx/standard_trailers/mining_truck_trailer_large_A.pcx 146 170 09 20 26 -10 -8
 1960 sprites/pcx/standard_trailers/mining_truck_trailer_large_A.pcx 178 170 01 24 12 -9 -16
 1961 sprites/pcx/standard_trailers/mining_truck_trailer_large_A.pcx 210 170 09 20 26 -17 -8
 1962 sprites/pcx/standard_trailers/mining_truck_trailer_large_A.pcx 242 170 01 16 36 -26 -9
 1963 sprites/pcx/standard_trailers/mining_truck_trailer_large_A.pcx 290 170 09 20 26 -10 -10
   // Large belly dump A (rear wheels only) - coal, loaded
 1964 sprites/pcx/standard_trailers/mining_truck_trailer_large_A.pcx 34 210 01 24 12 -3 -16
 1965 sprites/pcx/standard_trailers/mining_truck_trailer_large_A.pcx 66 210 09 20 26 -14 -7
 1966 sprites/pcx/standard_trailers/mining_truck_trailer_large_A.pcx 98 210 01 16 36 -14 -8
 1967 sprites/pcx/standard_trailers/mining_truck_trailer_large_A.pcx 146 210 09 20 26 -10 -8
 1968 sprites/pcx/standard_trailers/mining_truck_trailer_large_A.pcx 178 210 01 24 12 -9 -16
 1969 sprites/pcx/standard_trailers/mining_truck_trailer_large_A.pcx 210 210 09 20 26 -17 -8
 1970 sprites/pcx/standard_trailers/mining_truck_trailer_large_A.pcx 242 210 01 16 36 -26 -9
 1971 sprites/pcx/standard_trailers/mining_truck_trailer_large_A.pcx 290 210 09 20 26 -10 -10
   // Large belly dump A (rear wheels only) - sand, loading
 1972 sprites/pcx/standard_trailers/mining_truck_trailer_large_A.pcx 34 250 01 24 12 -3 -16
 1973 sprites/pcx/standard_trailers/mining_truck_trailer_large_A.pcx 66 250 09 20 26 -14 -7
 1974 sprites/pcx/standard_trailers/mining_truck_trailer_large_A.pcx 98 250 01 16 36 -14 -8
 1975 sprites/pcx/standard_trailers/mining_truck_trailer_large_A.pcx 146 250 09 20 26 -10 -8
 1976 sprites/pcx/standard_trailers/mining_truck_trailer_large_A.pcx 178 250 01 24 12 -9 -16
 1977 sprites/pcx/standard_trailers/mining_truck_trailer_large_A.pcx 210 250 09 20 26 -17 -8
 1978 sprites/pcx/standard_trailers/mining_truck_trailer_large_A.pcx 242 250 01 16 36 -26 -9
 1979 sprites/pcx/standard_trailers/mining_truck_trailer_large_A.pcx 290 250 09 20 26 -10 -10
  // Large belly dump A (rear wheels only) - sand, loaded
 1980 sprites/pcx/standard_trailers/mining_truck_trailer_large_A.pcx 34 290 01 24 12 -3 -16
 1981 sprites/pcx/standard_trailers/mining_truck_trailer_large_A.pcx 66 290 09 20 26 -14 -7
 1982 sprites/pcx/standard_trailers/mining_truck_trailer_large_A.pcx 98 290 01 16 36 -14 -8
 1983 sprites/pcx/standard_trailers/mining_truck_trailer_large_A.pcx 146 290 09 20 26 -10 -8
 1984 sprites/pcx/standard_trailers/mining_truck_trailer_large_A.pcx 178 290 01 24 12 -9 -16
 1985 sprites/pcx/standard_trailers/mining_truck_trailer_large_A.pcx 210 290 09 20 26 -17 -8
 1986 sprites/pcx/standard_trailers/mining_truck_trailer_large_A.pcx 242 290 01 16 36 -26 -9
 1987 sprites/pcx/standard_trailers/mining_truck_trailer_large_A.pcx 290 290 09 20 26 -10 -10
  // Large belly dump A (rear wheels only) - brown, loading
 1988 sprites/pcx/standard_trailers/mining_truck_trailer_large_A.pcx 34 410 01 24 12 -3 -16
 1989 sprites/pcx/standard_trailers/mining_truck_trailer_large_A.pcx 66 410 09 20 26 -14 -7
 1990 sprites/pcx/standard_trailers/mining_truck_trailer_large_A.pcx 98 410 01 16 36 -14 -8
 1991 sprites/pcx/standard_trailers/mining_truck_trailer_large_A.pcx 146 410 09 20 26 -10 -8
 1992 sprites/pcx/standard_trailers/mining_truck_trailer_large_A.pcx 178 410 01 24 12 -9 -16
 1993 sprites/pcx/standard_trailers/mining_truck_trailer_large_A.pcx 210 410 09 20 26 -17 -8
 1994 sprites/pcx/standard_trailers/mining_truck_trailer_large_A.pcx 242 410 01 16 36 -26 -9
 1995 sprites/pcx/standard_trailers/mining_truck_trailer_large_A.pcx 290 410 09 20 26 -10 -10
  // Large belly dump A (rear wheels only) - brown, loaded
 1996 sprites/pcx/standard_trailers/mining_truck_trailer_large_A.pcx 34 450 01 24 12 -3 -16
 1997 sprites/pcx/standard_trailers/mining_truck_trailer_large_A.pcx 66 450 09 20 26 -14 -7
 1998 sprites/pcx/standard_trailers/mining_truck_trailer_large_A.pcx 98 450 01 16 36 -14 -8
 1999 sprites/pcx/standard_trailers/mining_truck_trailer_large_A.pcx 146 450 09 20 26 -10 -8
 2000 sprites/pcx/standard_trailers/mining_truck_trailer_large_A.pcx 178 450 01 24 12 -9 -16
 2001 sprites/pcx/standard_trailers/mining_truck_trailer_large_A.pcx 210 450 09 20 26 -17 -8
 2002 sprites/pcx/standard_trailers/mining_truck_trailer_large_A.pcx 242 450 01 16 36 -26 -9
 2003 sprites/pcx/standard_trailers/mining_truck_trailer_large_A.pcx 290 450 09 20 26 -10 -10
  // Large belly dump A (rear wheels only) - red, loading
 2004 sprites/pcx/standard_trailers/mining_truck_trailer_large_A.pcx 34 370 01 24 12 -3 -16
 2005 sprites/pcx/standard_trailers/mining_truck_trailer_large_A.pcx 66 370 09 20 26 -14 -7
 2006 sprites/pcx/standard_trailers/mining_truck_trailer_large_A.pcx 98 370 01 16 36 -14 -8
 2007 sprites/pcx/standard_trailers/mining_truck_trailer_large_A.pcx 146 370 09 20 26 -10 -8
 2008 sprites/pcx/standard_trailers/mining_truck_trailer_large_A.pcx 178 370 01 24 12 -9 -16
 2009 sprites/pcx/standard_trailers/mining_truck_trailer_large_A.pcx 210 370 09 20 26 -17 -8
 2010 sprites/pcx/standard_trailers/mining_truck_trailer_large_A.pcx 242 370 01 16 36 -26 -9
 2011 sprites/pcx/standard_trailers/mining_truck_trailer_large_A.pcx 290 370 09 20 26 -10 -10
  // Large belly dump A (rear wheels only) - red, loaded
 2012 sprites/pcx/standard_trailers/mining_truck_trailer_large_A.pcx 34 370 01 24 12 -3 -16
 2013 sprites/pcx/standard_trailers/mining_truck_trailer_large_A.pcx 66 370 09 20 26 -14 -7
 2014 sprites/pcx/standard_trailers/mining_truck_trailer_large_A.pcx 98 370 01 16 36 -14 -8
 2015 sprites/pcx/standard_trailers/mining_truck_trailer_large_A.pcx 146 370 09 20 26 -10 -8
 2016 sprites/pcx/standard_trailers/mining_truck_trailer_large_A.pcx 178 370 01 24 12 -9 -16
 2017 sprites/pcx/standard_trailers/mining_truck_trailer_large_A.pcx 210 370 09 20 26 -17 -8
 2018 sprites/pcx/standard_trailers/mining_truck_trailer_large_A.pcx 242 370 01 16 36 -26 -9
 2019 sprites/pcx/standard_trailers/mining_truck_trailer_large_A.pcx 290 370 09 20 26 -10 -10
  // Large belly dump A (rear wheels only) - grey, loading
 2020 sprites/pcx/standard_trailers/mining_truck_trailer_large_A.pcx 34 90 01 24 12 -3 -16
 2021 sprites/pcx/standard_trailers/mining_truck_trailer_large_A.pcx 66 90 09 20 26 -14 -7
 2022 sprites/pcx/standard_trailers/mining_truck_trailer_large_A.pcx 98 90 01 16 36 -14 -8
 2023 sprites/pcx/standard_trailers/mining_truck_trailer_large_A.pcx 146 90 09 20 26 -10 -8
 2024 sprites/pcx/standard_trailers/mining_truck_trailer_large_A.pcx 178 90 01 24 12 -9 -16
 2025 sprites/pcx/standard_trailers/mining_truck_trailer_large_A.pcx 210 90 09 20 26 -17 -8
 2026 sprites/pcx/standard_trailers/mining_truck_trailer_large_A.pcx 242 90 01 16 36 -26 -9
 2027 sprites/pcx/standard_trailers/mining_truck_trailer_large_A.pcx 290 90 09 20 26 -10 -10
  // Large belly dump A (rear wheels only) - grey, loaded
 2028 sprites/pcx/standard_trailers/mining_truck_trailer_large_A.pcx 34 130 01 24 12 -3 -16
 2029 sprites/pcx/standard_trailers/mining_truck_trailer_large_A.pcx 66 130 09 20 26 -14 -7
 2030 sprites/pcx/standard_trailers/mining_truck_trailer_large_A.pcx 98 130 01 16 36 -14 -8
 2031 sprites/pcx/standard_trailers/mining_truck_trailer_large_A.pcx 146 130 09 20 26 -10 -8
 2032 sprites/pcx/standard_trailers/mining_truck_trailer_large_A.pcx 178 130 01 24 12 -9 -16
 2033 sprites/pcx/standard_trailers/mining_truck_trailer_large_A.pcx 210 130 09 20 26 -17 -8
 2034 sprites/pcx/standard_trailers/mining_truck_trailer_large_A.pcx 242 130 01 16 36 -26 -9
 2035 sprites/pcx/standard_trailers/mining_truck_trailer_large_A.pcx 290 130 09 20 26 -10 -10
 // Action 2 ID schema: 0 / 1 = rear wheels only, 2 / 3 = with front wheels  
 2036 * 17	 02 01 08  03 03    00 00  01 00  02 00    00 00  01 00  02 00 // iron ore
 2037 * 17	 02 01 01  03 03    00 00  03 00  04 00    00 00  03 00  04 00 // coal
 2038 * 17	 02 01 06  03 03    00 00  05 00  06 00    00 00  05 00  06 00 // sand
 2039 * 17	 02 01 0E  03 03    00 00  07 00  08 00    00 00  07 00  08 00 // brown 
 2040 * 17	 02 01 17  03 03    00 00  09 00  0A 00    00 00  09 00  0A 00 // red
 2041 * 17	 02 01 11  03 03    00 00  0B 00  0C 00    00 00  0B 00  0C 00 // grey
   // Large belly dump B (with front wheels) - empty
 2042 * 4	 01 01 0D 08
 2043 sprites/pcx/standard_trailers/mining_truck_trailer_large_B.pcx 34 50 01 24 12 -3 -16
 2044 sprites/pcx/standard_trailers/mining_truck_trailer_large_B.pcx 66 50 09 20 26 -14 -7
 2045 sprites/pcx/standard_trailers/mining_truck_trailer_large_B.pcx 98 50 01 16 36 -14 -8
 2046 sprites/pcx/standard_trailers/mining_truck_trailer_large_B.pcx 146 50 09 20 26 -10 -8
 2047 sprites/pcx/standard_trailers/mining_truck_trailer_large_B.pcx 178 50 01 24 12 -9 -16
 2048 sprites/pcx/standard_trailers/mining_truck_trailer_large_B.pcx 210 50 09 20 26 -17 -8
 2049 sprites/pcx/standard_trailers/mining_truck_trailer_large_B.pcx 242 50 01 16 36 -26 -9
 2050 sprites/pcx/standard_trailers/mining_truck_trailer_large_B.pcx 290 50 09 20 26 -10 -10
   // Large belly dump B (with front wheels) - iron ore, loading
 2051 sprites/pcx/standard_trailers/mining_truck_trailer_large_B.pcx 34 490 01 24 12 -3 -16
 2052 sprites/pcx/standard_trailers/mining_truck_trailer_large_B.pcx 66 490 09 20 20 -14 -7
 2053 sprites/pcx/standard_trailers/mining_truck_trailer_large_B.pcx 98 490 01 16 36 -14 -8
 2054 sprites/pcx/standard_trailers/mining_truck_trailer_large_B.pcx 146 490 09 20 26 -10 -8
 2055 sprites/pcx/standard_trailers/mining_truck_trailer_large_B.pcx 178 490 01 24 12 -9 -16
 2056 sprites/pcx/standard_trailers/mining_truck_trailer_large_B.pcx 210 490 09 20 26 -17 -8
 2057 sprites/pcx/standard_trailers/mining_truck_trailer_large_B.pcx 242 490 01 16 36 -26 -9
 2058 sprites/pcx/standard_trailers/mining_truck_trailer_large_B.pcx 290 490 09 20 26 -10 -10
   // Large belly dump B (with front wheels) - iron ore, loaded
 2059 sprites/pcx/standard_trailers/mining_truck_trailer_large_B.pcx 34 530 01 24 12 -3 -16
 2060 sprites/pcx/standard_trailers/mining_truck_trailer_large_B.pcx 66 530 09 20 20 -14 -7
 2061 sprites/pcx/standard_trailers/mining_truck_trailer_large_B.pcx 98 530 01 16 36 -14 -8
 2062 sprites/pcx/standard_trailers/mining_truck_trailer_large_B.pcx 146 530 09 20 26 -10 -8
 2063 sprites/pcx/standard_trailers/mining_truck_trailer_large_B.pcx 178 530 01 24 12 -9 -16
 2064 sprites/pcx/standard_trailers/mining_truck_trailer_large_B.pcx 210 530 09 20 26 -17 -8
 2065 sprites/pcx/standard_trailers/mining_truck_trailer_large_B.pcx 242 530 01 16 36 -26 -9
 2066 sprites/pcx/standard_trailers/mining_truck_trailer_large_B.pcx 290 530 09 20 26 -10 -10
   // Large belly dump B (with front wheels) - coal, loading
 2067 sprites/pcx/standard_trailers/mining_truck_trailer_large_B.pcx 34 170 01 24 12 -3 -16
 2068 sprites/pcx/standard_trailers/mining_truck_trailer_large_B.pcx 66 170 09 20 26 -14 -7
 2069 sprites/pcx/standard_trailers/mining_truck_trailer_large_B.pcx 98 170 01 16 36 -14 -8
 2070 sprites/pcx/standard_trailers/mining_truck_trailer_large_B.pcx 146 170 09 20 26 -10 -8
 2071 sprites/pcx/standard_trailers/mining_truck_trailer_large_B.pcx 178 170 01 24 12 -9 -16
 2072 sprites/pcx/standard_trailers/mining_truck_trailer_large_B.pcx 210 170 09 20 26 -17 -8
 2073 sprites/pcx/standard_trailers/mining_truck_trailer_large_B.pcx 242 170 01 16 36 -26 -9
 2074 sprites/pcx/standard_trailers/mining_truck_trailer_large_B.pcx 290 170 09 20 26 -10 -10
   // Large belly dump B (with front wheels) - coal, loaded
 2075 sprites/pcx/standard_trailers/mining_truck_trailer_large_B.pcx 34 210 01 24 12 -3 -16
 2076 sprites/pcx/standard_trailers/mining_truck_trailer_large_B.pcx 66 210 09 20 26 -14 -7
 2077 sprites/pcx/standard_trailers/mining_truck_trailer_large_B.pcx 98 210 01 16 36 -14 -8
 2078 sprites/pcx/standard_trailers/mining_truck_trailer_large_B.pcx 146 210 09 20 26 -10 -8
 2079 sprites/pcx/standard_trailers/mining_truck_trailer_large_B.pcx 178 210 01 24 12 -9 -16
 2080 sprites/pcx/standard_trailers/mining_truck_trailer_large_B.pcx 210 210 09 20 26 -17 -8
 2081 sprites/pcx/standard_trailers/mining_truck_trailer_large_B.pcx 242 210 01 16 36 -26 -9
 2082 sprites/pcx/standard_trailers/mining_truck_trailer_large_B.pcx 290 210 09 20 26 -10 -10
   // Large belly dump B (with front wheels) - sand, loading
 2083 sprites/pcx/standard_trailers/mining_truck_trailer_large_B.pcx 34 250 01 24 12 -3 -16
 2084 sprites/pcx/standard_trailers/mining_truck_trailer_large_B.pcx 66 250 09 20 26 -14 -7
 2085 sprites/pcx/standard_trailers/mining_truck_trailer_large_B.pcx 98 250 01 16 36 -14 -8
 2086 sprites/pcx/standard_trailers/mining_truck_trailer_large_B.pcx 146 250 09 20 26 -10 -8
 2087 sprites/pcx/standard_trailers/mining_truck_trailer_large_B.pcx 178 250 01 24 12 -9 -16
 2088 sprites/pcx/standard_trailers/mining_truck_trailer_large_B.pcx 210 250 09 20 26 -17 -8
 2089 sprites/pcx/standard_trailers/mining_truck_trailer_large_B.pcx 242 250 01 16 36 -26 -9
 2090 sprites/pcx/standard_trailers/mining_truck_trailer_large_B.pcx 290 250 09 20 26 -10 -10
  // Large belly dump B (with front wheels) - sand, loaded
 2091 sprites/pcx/standard_trailers/mining_truck_trailer_large_B.pcx 34 290 01 24 12 -3 -16
 2092 sprites/pcx/standard_trailers/mining_truck_trailer_large_B.pcx 66 290 09 20 26 -14 -7
 2093 sprites/pcx/standard_trailers/mining_truck_trailer_large_B.pcx 98 290 01 16 36 -14 -8
 2094 sprites/pcx/standard_trailers/mining_truck_trailer_large_B.pcx 146 290 09 20 26 -10 -8
 2095 sprites/pcx/standard_trailers/mining_truck_trailer_large_B.pcx 178 290 01 24 12 -9 -16
 2096 sprites/pcx/standard_trailers/mining_truck_trailer_large_B.pcx 210 290 09 20 26 -17 -8
 2097 sprites/pcx/standard_trailers/mining_truck_trailer_large_B.pcx 242 290 01 16 36 -26 -9
 2098 sprites/pcx/standard_trailers/mining_truck_trailer_large_B.pcx 290 290 09 20 26 -10 -10
  // Large belly dump B (with front wheels) - brown, loading
 2099 sprites/pcx/standard_trailers/mining_truck_trailer_large_B.pcx 34 410 01 24 12 -3 -16
 2100 sprites/pcx/standard_trailers/mining_truck_trailer_large_B.pcx 66 410 09 20 26 -14 -7
 2101 sprites/pcx/standard_trailers/mining_truck_trailer_large_B.pcx 98 410 01 16 36 -14 -8
 2102 sprites/pcx/standard_trailers/mining_truck_trailer_large_B.pcx 146 410 09 20 26 -10 -8
 2103 sprites/pcx/standard_trailers/mining_truck_trailer_large_B.pcx 178 410 01 24 12 -9 -16
 2104 sprites/pcx/standard_trailers/mining_truck_trailer_large_B.pcx 210 410 09 20 26 -17 -8
 2105 sprites/pcx/standard_trailers/mining_truck_trailer_large_B.pcx 242 410 01 16 36 -26 -9
 2106 sprites/pcx/standard_trailers/mining_truck_trailer_large_B.pcx 290 410 09 20 26 -10 -10
  // Large belly dump B (with front wheels) - brown, loaded
 2107 sprites/pcx/standard_trailers/mining_truck_trailer_large_B.pcx 34 450 01 24 12 -3 -16
 2108 sprites/pcx/standard_trailers/mining_truck_trailer_large_B.pcx 66 450 09 20 26 -14 -7
 2109 sprites/pcx/standard_trailers/mining_truck_trailer_large_B.pcx 98 450 01 16 36 -14 -8
 2110 sprites/pcx/standard_trailers/mining_truck_trailer_large_B.pcx 146 450 09 20 26 -10 -8
 2111 sprites/pcx/standard_trailers/mining_truck_trailer_large_B.pcx 178 450 01 24 12 -9 -16
 2112 sprites/pcx/standard_trailers/mining_truck_trailer_large_B.pcx 210 450 09 20 26 -17 -8
 2113 sprites/pcx/standard_trailers/mining_truck_trailer_large_B.pcx 242 450 01 16 36 -26 -9
 2114 sprites/pcx/standard_trailers/mining_truck_trailer_large_B.pcx 290 450 09 20 26 -10 -10
  // Large belly dump B (with front wheels) - red, loading
 2115 sprites/pcx/standard_trailers/mining_truck_trailer_large_B.pcx 34 370 01 24 12 -3 -16
 2116 sprites/pcx/standard_trailers/mining_truck_trailer_large_B.pcx 66 370 09 20 26 -14 -7
 2117 sprites/pcx/standard_trailers/mining_truck_trailer_large_B.pcx 98 370 01 16 36 -14 -8
 2118 sprites/pcx/standard_trailers/mining_truck_trailer_large_B.pcx 146 370 09 20 26 -10 -8
 2119 sprites/pcx/standard_trailers/mining_truck_trailer_large_B.pcx 178 370 01 24 12 -9 -16
 2120 sprites/pcx/standard_trailers/mining_truck_trailer_large_B.pcx 210 370 09 20 26 -17 -8
 2121 sprites/pcx/standard_trailers/mining_truck_trailer_large_B.pcx 242 370 01 16 36 -26 -9
 2122 sprites/pcx/standard_trailers/mining_truck_trailer_large_B.pcx 290 370 09 20 26 -10 -10
  // Large belly dump B (with front wheels) - red, loaded
 2123 sprites/pcx/standard_trailers/mining_truck_trailer_large_B.pcx 34 370 01 24 12 -3 -16
 2124 sprites/pcx/standard_trailers/mining_truck_trailer_large_B.pcx 66 370 09 20 26 -14 -7
 2125 sprites/pcx/standard_trailers/mining_truck_trailer_large_B.pcx 98 370 01 16 36 -14 -8
 2126 sprites/pcx/standard_trailers/mining_truck_trailer_large_B.pcx 146 370 09 20 26 -10 -8
 2127 sprites/pcx/standard_trailers/mining_truck_trailer_large_B.pcx 178 370 01 24 12 -9 -16
 2128 sprites/pcx/standard_trailers/mining_truck_trailer_large_B.pcx 210 370 09 20 26 -17 -8
 2129 sprites/pcx/standard_trailers/mining_truck_trailer_large_B.pcx 242 370 01 16 36 -26 -9
 2130 sprites/pcx/standard_trailers/mining_truck_trailer_large_B.pcx 290 370 09 20 26 -10 -10
  // Large belly dump B (with front wheels) - grey, loading
 2131 sprites/pcx/standard_trailers/mining_truck_trailer_large_B.pcx 34 90 01 24 12 -3 -16
 2132 sprites/pcx/standard_trailers/mining_truck_trailer_large_B.pcx 66 90 09 20 26 -14 -7
 2133 sprites/pcx/standard_trailers/mining_truck_trailer_large_B.pcx 98 90 01 16 36 -14 -8
 2134 sprites/pcx/standard_trailers/mining_truck_trailer_large_B.pcx 146 90 09 20 26 -10 -8
 2135 sprites/pcx/standard_trailers/mining_truck_trailer_large_B.pcx 178 90 01 24 12 -9 -16
 2136 sprites/pcx/standard_trailers/mining_truck_trailer_large_B.pcx 210 90 09 20 26 -17 -8
 2137 sprites/pcx/standard_trailers/mining_truck_trailer_large_B.pcx 242 90 01 16 36 -26 -9
 2138 sprites/pcx/standard_trailers/mining_truck_trailer_large_B.pcx 290 90 09 20 26 -10 -10
  // Large belly dump B (with front wheels) - grey, loaded
 2139 sprites/pcx/standard_trailers/mining_truck_trailer_large_B.pcx 34 130 01 24 12 -3 -16
 2140 sprites/pcx/standard_trailers/mining_truck_trailer_large_B.pcx 66 130 09 20 26 -14 -7
 2141 sprites/pcx/standard_trailers/mining_truck_trailer_large_B.pcx 98 130 01 16 36 -14 -8
 2142 sprites/pcx/standard_trailers/mining_truck_trailer_large_B.pcx 146 130 09 20 26 -10 -8
 2143 sprites/pcx/standard_trailers/mining_truck_trailer_large_B.pcx 178 130 01 24 12 -9 -16
 2144 sprites/pcx/standard_trailers/mining_truck_trailer_large_B.pcx 210 130 09 20 26 -17 -8
 2145 sprites/pcx/standard_trailers/mining_truck_trailer_large_B.pcx 242 130 01 16 36 -26 -9
 2146 sprites/pcx/standard_trailers/mining_truck_trailer_large_B.pcx 290 130 09 20 26 -10 -10
 // Action 2 ID schema: 0 / 1 = rear wheels only, 2 / 3 = with front wheels  
 2147 * 17	 02 01 28  03 03    00 00  01 00  02 00    00 00  01 00  02 00 // iron ore
 2148 * 17	 02 01 21  03 03    00 00  03 00  04 00    00 00  03 00  04 00 // coal
 2149 * 17	 02 01 26  03 03    00 00  05 00  06 00    00 00  05 00  06 00 // grain (not used - left here for ease of copy and paste)
 2150 * 17	 02 01 2E  03 03    00 00  07 00  08 00    00 00  07 00  08 00 // brown 
 2151 * 17	 02 01 37  03 03    00 00  09 00  0A 00    00 00  09 00  0A 00 // red
 2152 * 17	 02 01 31  03 03    00 00  0B 00  0C 00    00 00  0B 00  0C 00 // grey
 // Rough order of business here:
    // assume belly dumps in position 1 in consist are behind a mining hauler (in position 0) and don't need front wheels.
    // otherwise use front wheel sprites
 2153 * 26	 02 01 CD // choose belly dump A sprites according to cargo slot (in cargo translation tt)
                 81 47 00 FF // var 47 in format ccccwwtt where I want tt 
                 06 // range
                  01 00  01 01 // COAL (format is: ID | cargo) 
                  08 00  08 08 // IORE
                  17 00  0E 0E // CORE
                  17 00  18 18 // AORE (bauxite)
                  06 00  19 19 // SAND
                  11 00  1A 1A // GRVL
                 11 00 // default 
 2154 * 26	 02 01 CC  // choose belly dump B sprites according to cargo slot (in cargo translation tt)
                 81 47 00 FF // var 47 in format ccccwwtt where I want tt 
                 06 // range
                  21 00  01 01 // COAL (format is: ID | cargo) 
                  28 00  08 08 // IORE
                  37 00  0E 0E // CORE
                  37 00  18 18 // AORE (bauxite)
                  26 00  19 19 // SAND
                  31 00  1A 1A // GRVL
                 31 00 // default
 2155 * 14	 02 01 CA  // choose belly dump sprites according to position in consist 
                 81 40 00 FF // var 40 in format 00nnbbff where I want ff 
                 01 // range
                  CD 00 01 01 // vehicle is in position 1 in consist (second vehicle)
                 CC 00 // default 
 2156 * 7	 03 01 01 07  // Action 3
      00  // Number of different cargo types to support  
      CA 00 // default
  // ----------------- end of Belly Dump Trailers for Mining Trucks -------------- //