// Automatically generated by GRFCODEC. Do not modify!
// (Info version 7)
// Format: spritenum pcxfile xpos ypos compression ysize xsize xrel yrel
    0 * 4	 93 0A 00 00
//!!Warning (147): Offset 6: Insufficient stack data for control character 7B.
    1 * 128	 08 06 "AP" 12 01 "{{GRF_TITLE}}" 00 "Heavy equipment Set"
	 "in dual company colours."
	 "Brought to you by"
	 "andythenorth and Richard Wheeler (Zephyris)"
	 "2008" 00

    2 * 134	 00 08 01 20 00 09 // Cargo translation table
      "PASS" "COAL" "MAIL" "OIL_"     // 00 - 03, 01 - 08
      "LVST" "GOOD" "GRAI" "WOOD"     // 04 - 07, 10 - 80
      "IORE" "STEL" "VALU" "PAPR"     // 08 - 0B, 01^ - 08^
      "FOOD" "FRUT" "CORE" "WATR"     // 0C - 0F, 10^ - 80^
      "RUBR" "___A" "___B" "___C"     // 10 - 13, 01^^ - 08^^
      "___D" "___E" "___F" "___G"     // 14 - 17, 10^^ - 80^^
      "___H" "___I" "___J" "WHEA"     // 18 - 1B, 01^^^ - 08^^^
      "GOLD" "MAIZ" "TWOD" "DIAM"     // 1C - 1F, 10^^^ - 80^^^


   // -- Sounds -- //

    3 * 3	 11 01 00
    4 **	 sprites/sounds/74_tractor.wav   

   // -- End Sounds -- //


   // ----------- Drawbars for Trailers -------------//

   // Drawbar
    5 * 67	 00 01 19 01 05 // Action 0
      00 00 00  // intro date
      02 20     // reliability
      03 19     // vehicle life
      04 23     // class life
      06 00     // climate
      07 05     // load amount
      08 E0     // speed in mph * 3.2
      09 08     // running cost factor
      0A 48 4C 00 00 13 00 14 20 // running cost base
      0E FF     // sprite ID
      0F 00     // capacity
      10 FF     // cargo type
      11 00     // cost factor
      12 00     // sound effect
      15 38     // speed in mph * 0.8
      16 00 00 00 00    // Bit mask of cargo types available for refitting
      17 02     // Callback flags bit mask
      1A 00     // Refit cost, using 25% of the purchase price cost base
      1B 00     // Retire vehicle early, this many years before the end of phase 2
      1C 02     // Miscellaneous vehicle flags     
      1D FF 03     // Refittable cargo classes 
      1E 01 00     // Non-refittable cargo classes
      1F 60 B3 0A 00   // Long format introduction date     
    6 * 28	 04 01 7F 01 05 "[Drawbar for Trailers]" 00
    7 * 4	 01 01 01 08
    8 sprites/drawbar.pcx 34 10 01 24 12 -5 -16
    9 sprites/drawbar.pcx 66 10 09 20 26 -12 -11
   10 sprites/drawbar.pcx 98 10 01 16 36 -18 -8
   11 sprites/drawbar.pcx 146 10 09 20 26 -4 -5
   12 sprites/drawbar.pcx 178 10 01 24 12 -8 -8
   13 sprites/drawbar.pcx 210 10 09 20 26 -26 -4
   14 sprites/drawbar.pcx 242 10 01 16 36 -22 -8
   15 sprites/drawbar.pcx 290 10 09 20 26 -10 -10
   16 * 9	 02 01 BB   01 01   00 00    00 00
   17 * 14	 02 01 AA  // handle callbacks
                 81 0C 00 FF // check variable 0C
                 01 // range
                  05 80 11 11 // vehicle length callback
                 BB 00
   18 * 7	 03 01 01 05 // Action 3
      00  // Number of different cargo types to support  
      AA 00 // default cargo

   // ----------------- end trailer drawbars -------------------//


    // ------------ Medium Trailers ------------------ //

   // Medium Trailers

   19 * 67	 00 01 19 01 00
      00 00 00  // intro date
      02 20     // reliability
      03 19     // vehicle life
      04 23     // class life
      06 00     // climate
      07 05     // load amount
      08 E0     // speed in mph * 3.2
      09 08     // running cost factor
      0A 48 4C 00 00 13 00 14 20    // running cost base
      0E FF     // sprite ID
      0F \b19     // capacity
      10 06     // cargo type
      11 00     // cost factor
      12 00     // sound effect
      15 38     // speed in mph * 0.8
      16 00 00 00 00    // Bit mask of cargo types available for refitting
      17 30     // Callback flags bit mask
      1A 00     // Refit cost, using 25% of the purchase price cost base
      1B 00     // Retire vehicle early, this many years before the end of phase 2
      1C 02     // Miscellaneous vehicle flags 
      1D FF 03      // Refittable cargo classes
      1E 01 00      // Non-refittable cargo classes
      1F 60 B3 0A 00    // Long format introduction date     
   20 * 30	 04 01 7F 01 00 "[Generic Medium Trailer]" 00
// define additional text suffixes
   21 * 28	 04 00 81 02 00 D0
            		" (refit 1)" 00	//
               	" (refit 2)" 00	//
   // Medium Goods Trailer
   22 * 4	 01 01 01 08
   // Medium box trailer
   23 sprites/standard_trailers/medium_trailer_tandem.pcx 34 570 01 24 12 -3 -10
   24 sprites/standard_trailers/medium_trailer_tandem.pcx 66 570 01 20 26 -11 -9
   25 sprites/standard_trailers/medium_trailer_tandem.pcx 98 570 01 16 36 -14 -6
   26 sprites/standard_trailers/medium_trailer_tandem.pcx 146 570 01 20 26 -9 -7
   27 sprites/standard_trailers/medium_trailer_tandem.pcx 178 570 01 24 12 -9 -16
   28 sprites/standard_trailers/medium_trailer_tandem.pcx 210 570 01 20 26 -17 -7
   29 sprites/standard_trailers/medium_trailer_tandem.pcx 242 570 01 16 36 -30 -8
   30 sprites/standard_trailers/medium_trailer_tandem.pcx 290 570 01 20 26 -13 -10
   31 * 9	 02 01 05   01 01   00 00    00 00 // box
   // Medium end dump trailer - empty
   32 * 4	 01 01 0D 08
   33 sprites/standard_trailers/medium_trailer_tandem.pcx 34 50 01 24 12 -3 -10
   34 sprites/standard_trailers/medium_trailer_tandem.pcx 66 50 09 20 26 -11 -9
   35 sprites/standard_trailers/medium_trailer_tandem.pcx 98 50 01 16 36 -14 -6
   36 sprites/standard_trailers/medium_trailer_tandem.pcx 146 50 09 20 26 -9 -7
   37 sprites/standard_trailers/medium_trailer_tandem.pcx 178 50 01 24 12 -9 -16
   38 sprites/standard_trailers/medium_trailer_tandem.pcx 210 50 09 20 26 -17 -7
   39 sprites/standard_trailers/medium_trailer_tandem.pcx 242 50 01 16 36 -30 -8
   40 sprites/standard_trailers/medium_trailer_tandem.pcx 290 50 09 20 26 -13 -10
   // Medium end dump - iron ore, loading  !! this isn't iron ore??
   41 sprites/standard_trailers/medium_trailer_tandem.pcx 34 490 01 24 12 -3 -10
   42 sprites/standard_trailers/medium_trailer_tandem.pcx 66 490 09 20 20 -11 -9
   43 sprites/standard_trailers/medium_trailer_tandem.pcx 98 490 01 16 36 -14 -6
   44 sprites/standard_trailers/medium_trailer_tandem.pcx 146 490 09 20 26 -9 -7
   45 sprites/standard_trailers/medium_trailer_tandem.pcx 178 490 01 24 12 -9 -16
   46 sprites/standard_trailers/medium_trailer_tandem.pcx 210 490 09 20 26 -17 -7
   47 sprites/standard_trailers/medium_trailer_tandem.pcx 242 490 01 16 36 -30 -8
   48 sprites/standard_trailers/medium_trailer_tandem.pcx 290 490 09 20 26 -13 -10
   // Medium end dump - iron ore, loaded  !! this isn't iron ore??
   49 sprites/standard_trailers/medium_trailer_tandem.pcx 34 530 01 24 12 -3 -10
   50 sprites/standard_trailers/medium_trailer_tandem.pcx 66 530 09 20 20 -11 -9
   51 sprites/standard_trailers/medium_trailer_tandem.pcx 98 530 01 16 36 -14 -6
   52 sprites/standard_trailers/medium_trailer_tandem.pcx 146 530 09 20 26 -9 -7
   53 sprites/standard_trailers/medium_trailer_tandem.pcx 178 530 01 24 12 -9 -16
   54 sprites/standard_trailers/medium_trailer_tandem.pcx 210 530 09 20 26 -17 -7
   55 sprites/standard_trailers/medium_trailer_tandem.pcx 242 530 01 16 36 -30 -8
   56 sprites/standard_trailers/medium_trailer_tandem.pcx 290 530 09 20 26 -13 -10
   // Medium end dump - coal, loading
   57 sprites/standard_trailers/medium_trailer_tandem.pcx 34 170 01 24 12 -3 -10
   58 sprites/standard_trailers/medium_trailer_tandem.pcx 66 170 09 20 26 -11 -9
   59 sprites/standard_trailers/medium_trailer_tandem.pcx 98 170 01 16 36 -14 -6
   60 sprites/standard_trailers/medium_trailer_tandem.pcx 146 170 09 20 26 -9 -7
   61 sprites/standard_trailers/medium_trailer_tandem.pcx 178 170 01 24 12 -9 -16
   62 sprites/standard_trailers/medium_trailer_tandem.pcx 210 170 09 20 26 -17 -7
   63 sprites/standard_trailers/medium_trailer_tandem.pcx 242 170 01 16 36 -30 -8
   64 sprites/standard_trailers/medium_trailer_tandem.pcx 290 170 09 20 26 -13 -10
   // Medium end dump - coal, loaded
   65 sprites/standard_trailers/medium_trailer_tandem.pcx 34 210 01 24 12 -3 -10
   66 sprites/standard_trailers/medium_trailer_tandem.pcx 66 210 09 20 26 -11 -9
   67 sprites/standard_trailers/medium_trailer_tandem.pcx 98 210 01 16 36 -14 -6
   68 sprites/standard_trailers/medium_trailer_tandem.pcx 146 210 09 20 26 -9 -7
   69 sprites/standard_trailers/medium_trailer_tandem.pcx 178 210 01 24 12 -9 -16
   70 sprites/standard_trailers/medium_trailer_tandem.pcx 210 210 09 20 26 -17 -7
   71 sprites/standard_trailers/medium_trailer_tandem.pcx 242 210 01 16 36 -30 -8
   72 sprites/standard_trailers/medium_trailer_tandem.pcx 290 210 09 20 26 -13 -10
   // Medium end dump - grain, loading
   73 sprites/standard_trailers/medium_trailer_tandem.pcx 34 250 01 24 12 -3 -10
   74 sprites/standard_trailers/medium_trailer_tandem.pcx 66 250 09 20 26 -11 -9
   75 sprites/standard_trailers/medium_trailer_tandem.pcx 98 250 01 16 36 -14 -6
   76 sprites/standard_trailers/medium_trailer_tandem.pcx 146 250 09 20 26 -9 -7
   77 sprites/standard_trailers/medium_trailer_tandem.pcx 178 250 01 24 12 -9 -16
   78 sprites/standard_trailers/medium_trailer_tandem.pcx 210 250 09 20 26 -17 -7
   79 sprites/standard_trailers/medium_trailer_tandem.pcx 242 250 01 16 36 -30 -8
   80 sprites/standard_trailers/medium_trailer_tandem.pcx 290 250 09 20 26 -13 -10
  // Medium end dump - grain, loaded
   81 sprites/standard_trailers/medium_trailer_tandem.pcx 34 290 01 24 12 -3 -10
   82 sprites/standard_trailers/medium_trailer_tandem.pcx 66 290 09 20 26 -11 -9
   83 sprites/standard_trailers/medium_trailer_tandem.pcx 98 290 01 16 36 -14 -6
   84 sprites/standard_trailers/medium_trailer_tandem.pcx 146 290 09 20 26 -9 -7
   85 sprites/standard_trailers/medium_trailer_tandem.pcx 178 290 01 24 12 -9 -16
   86 sprites/standard_trailers/medium_trailer_tandem.pcx 210 290 09 20 26 -17 -7
   87 sprites/standard_trailers/medium_trailer_tandem.pcx 242 290 01 16 36 -30 -8
   88 sprites/standard_trailers/medium_trailer_tandem.pcx 290 290 09 20 26 -13 -10
  // Medium end dump - clay, loading
   89 sprites/standard_trailers/medium_trailer_tandem.pcx 34 410 01 24 12 -3 -10
   90 sprites/standard_trailers/medium_trailer_tandem.pcx 66 410 09 20 26 -11 -9
   91 sprites/standard_trailers/medium_trailer_tandem.pcx 98 410 01 16 36 -14 -6
   92 sprites/standard_trailers/medium_trailer_tandem.pcx 146 410 09 20 26 -9 -7
   93 sprites/standard_trailers/medium_trailer_tandem.pcx 178 410 01 24 12 -9 -16
   94 sprites/standard_trailers/medium_trailer_tandem.pcx 210 410 09 20 26 -17 -7
   95 sprites/standard_trailers/medium_trailer_tandem.pcx 242 410 01 16 36 -30 -8
   96 sprites/standard_trailers/medium_trailer_tandem.pcx 290 410 09 20 26 -13 -10
  // Medium end dump - clay, loaded
   97 sprites/standard_trailers/medium_trailer_tandem.pcx 34 450 01 24 12 -3 -10
   98 sprites/standard_trailers/medium_trailer_tandem.pcx 66 450 09 20 26 -11 -9
   99 sprites/standard_trailers/medium_trailer_tandem.pcx 98 450 01 16 36 -14 -6
  100 sprites/standard_trailers/medium_trailer_tandem.pcx 146 450 09 20 26 -9 -7
  101 sprites/standard_trailers/medium_trailer_tandem.pcx 178 450 01 24 12 -9 -16
  102 sprites/standard_trailers/medium_trailer_tandem.pcx 210 450 09 20 26 -17 -7
  103 sprites/standard_trailers/medium_trailer_tandem.pcx 242 450 01 16 36 -30 -8
  104 sprites/standard_trailers/medium_trailer_tandem.pcx 290 450 09 20 26 -13 -10
  // Medium end dump - copper ore, loading
  105 sprites/standard_trailers/medium_trailer_tandem.pcx 34 330 01 24 12 -3 -10
  106 sprites/standard_trailers/medium_trailer_tandem.pcx 66 330 09 20 26 -11 -9
  107 sprites/standard_trailers/medium_trailer_tandem.pcx 98 330 01 16 36 -14 -6
  108 sprites/standard_trailers/medium_trailer_tandem.pcx 146 330 09 20 26 -9 -7
  109 sprites/standard_trailers/medium_trailer_tandem.pcx 178 330 01 24 12 -9 -16
  110 sprites/standard_trailers/medium_trailer_tandem.pcx 210 330 09 20 26 -17 -7
  111 sprites/standard_trailers/medium_trailer_tandem.pcx 242 330 01 16 36 -30 -8
  112 sprites/standard_trailers/medium_trailer_tandem.pcx 290 330 09 20 26 -13 -10
  // Medium end dump - copper ore, loaded
  113 sprites/standard_trailers/medium_trailer_tandem.pcx 34 370 01 24 12 -3 -10
  114 sprites/standard_trailers/medium_trailer_tandem.pcx 66 370 09 20 26 -11 -9
  115 sprites/standard_trailers/medium_trailer_tandem.pcx 98 370 01 16 36 -14 -6
  116 sprites/standard_trailers/medium_trailer_tandem.pcx 146 370 09 20 26 -9 -7
  117 sprites/standard_trailers/medium_trailer_tandem.pcx 178 370 01 24 12 -9 -16
  118 sprites/standard_trailers/medium_trailer_tandem.pcx 210 370 09 20 26 -17 -7
  119 sprites/standard_trailers/medium_trailer_tandem.pcx 242 370 01 16 36 -30 -8
  120 sprites/standard_trailers/medium_trailer_tandem.pcx 290 370 09 20 26 -13 -10
  // Medium end dump - gravel, loading
  121 sprites/standard_trailers/medium_trailer_tandem.pcx 34 90 01 24 12 -3 -10
  122 sprites/standard_trailers/medium_trailer_tandem.pcx 66 90 09 20 26 -11 -9
  123 sprites/standard_trailers/medium_trailer_tandem.pcx 98 90 01 16 36 -14 -6
  124 sprites/standard_trailers/medium_trailer_tandem.pcx 146 90 09 20 26 -9 -7
  125 sprites/standard_trailers/medium_trailer_tandem.pcx 178 90 01 24 12 -9 -16
  126 sprites/standard_trailers/medium_trailer_tandem.pcx 210 90 09 20 26 -17 -7
  127 sprites/standard_trailers/medium_trailer_tandem.pcx 242 90 01 16 36 -30 -8
  128 sprites/standard_trailers/medium_trailer_tandem.pcx 290 90 09 20 26 -13 -10
  // Medium end dump - gravel, loaded
  129 sprites/standard_trailers/medium_trailer_tandem.pcx 34 130 01 24 12 -3 -10
  130 sprites/standard_trailers/medium_trailer_tandem.pcx 66 130 09 20 26 -11 -9
  131 sprites/standard_trailers/medium_trailer_tandem.pcx 98 130 01 16 36 -14 -6
  132 sprites/standard_trailers/medium_trailer_tandem.pcx 146 130 09 20 26 -9 -7
  133 sprites/standard_trailers/medium_trailer_tandem.pcx 178 130 01 24 12 -9 -16
  134 sprites/standard_trailers/medium_trailer_tandem.pcx 210 130 09 20 26 -17 -7
  135 sprites/standard_trailers/medium_trailer_tandem.pcx 242 130 01 16 36 -30 -8
  136 sprites/standard_trailers/medium_trailer_tandem.pcx 290 130 09 20 26 -13 -10
  137 * 17	 02 01 08  03 03    00 00  01 00  02 00    00 00  01 00  02 00 // iron ore
  138 * 17	 02 01 01  03 03    00 00  03 00  04 00    00 00  03 00  04 00 // coal
  139 * 17	 02 01 06  03 03    00 00  05 00  06 00    00 00  05 00  06 00 // grain
  140 * 17	 02 01 0E  03 03    00 00  07 00  08 00    00 00  07 00  08 00 // brown 
  141 * 17	 02 01 17  03 03    00 00  09 00  0A 00    00 00  09 00  0A 00 // red
  142 * 17	 02 01 11  03 03    00 00  0B 00  0C 00    00 00  0B 00  0C 00 // grey
  // Medium flat trailer / (also stake trailer ??)
  143 * 4	 01 01 0C 08
  // Medium flat trailer - empty
  144 sprites/standard_trailers/medium_trailer_tandem.pcx 34 730 01 24 12 -3 -10
  145 sprites/standard_trailers/medium_trailer_tandem.pcx 66 730 09 20 26 -11 -9
  146 sprites/standard_trailers/medium_trailer_tandem.pcx 98 730 01 16 36 -14 -6
  147 sprites/standard_trailers/medium_trailer_tandem.pcx 146 730 09 20 26 -9 -7
  148 sprites/standard_trailers/medium_trailer_tandem.pcx 178 730 01 24 12 -9 -16
  149 sprites/standard_trailers/medium_trailer_tandem.pcx 210 730 09 20 26 -17 -7
  150 sprites/standard_trailers/medium_trailer_tandem.pcx 242 730 01 16 36 -30 -8
  151 sprites/standard_trailers/medium_trailer_tandem.pcx 290 730 09 20 26 -13 -10
  // Medium flat trailer - steel, loading  
  152 sprites/standard_trailers/medium_trailer_tandem.pcx 34 970 01 24 12 -3 -10
  153 sprites/standard_trailers/medium_trailer_tandem.pcx 66 970 09 20 26 -11 -9
  154 sprites/standard_trailers/medium_trailer_tandem.pcx 98 970 01 16 36 -14 -6
  155 sprites/standard_trailers/medium_trailer_tandem.pcx 146 970 09 20 26 -9 -7
  156 sprites/standard_trailers/medium_trailer_tandem.pcx 178 970 01 24 12 -9 -16
  157 sprites/standard_trailers/medium_trailer_tandem.pcx 210 970 09 20 26 -17 -7
  158 sprites/standard_trailers/medium_trailer_tandem.pcx 242 970 01 16 36 -30 -8
  159 sprites/standard_trailers/medium_trailer_tandem.pcx 290 970 09 20 26 -13 -10
  // Medium flat trailer - steel, loaded  
  160 sprites/standard_trailers/medium_trailer_tandem.pcx 34 970 01 24 12 -3 -10
  161 sprites/standard_trailers/medium_trailer_tandem.pcx 66 970 09 20 26 -11 -9
  162 sprites/standard_trailers/medium_trailer_tandem.pcx 98 970 01 16 36 -14 -6
  163 sprites/standard_trailers/medium_trailer_tandem.pcx 146 970 09 20 26 -9 -7
  164 sprites/standard_trailers/medium_trailer_tandem.pcx 178 970 01 24 12 -9 -16
  165 sprites/standard_trailers/medium_trailer_tandem.pcx 210 970 09 20 26 -17 -7
  166 sprites/standard_trailers/medium_trailer_tandem.pcx 242 970 01 16 36 -30 -8
  167 sprites/standard_trailers/medium_trailer_tandem.pcx 290 970 09 20 26 -13 -10
  // Medium flat trailer - paper, loading  
  168 sprites/standard_trailers/medium_trailer_tandem.pcx 34 1130 01 24 12 -3 -10
  169 sprites/standard_trailers/medium_trailer_tandem.pcx 66 1130 09 20 26 -11 -9
  170 sprites/standard_trailers/medium_trailer_tandem.pcx 98 1130 01 16 36 -14 -6
  171 sprites/standard_trailers/medium_trailer_tandem.pcx 146 1130 09 20 26 -9 -7
  172 sprites/standard_trailers/medium_trailer_tandem.pcx 178 1130 01 24 12 -9 -16
  173 sprites/standard_trailers/medium_trailer_tandem.pcx 210 1130 09 20 26 -17 -7
  174 sprites/standard_trailers/medium_trailer_tandem.pcx 242 1130 01 16 36 -30 -8
  175 sprites/standard_trailers/medium_trailer_tandem.pcx 290 1130 09 20 26 -13 -10
  // Medium flat trailer - paper, loaded  
  176 sprites/standard_trailers/medium_trailer_tandem.pcx 34 1130 01 24 12 -3 -10
  177 sprites/standard_trailers/medium_trailer_tandem.pcx 66 1130 09 20 26 -11 -9
  178 sprites/standard_trailers/medium_trailer_tandem.pcx 98 1130 01 16 36 -14 -6
  179 sprites/standard_trailers/medium_trailer_tandem.pcx 146 1130 09 20 26 -9 -7
  180 sprites/standard_trailers/medium_trailer_tandem.pcx 178 1130 01 24 12 -9 -16
  181 sprites/standard_trailers/medium_trailer_tandem.pcx 210 1130 09 20 26 -17 -7
  182 sprites/standard_trailers/medium_trailer_tandem.pcx 242 1130 01 16 36 -30 -8
  183 sprites/standard_trailers/medium_trailer_tandem.pcx 290 1130 09 20 26 -13 -10
  // Medium stake trailer - empty
  184 sprites/standard_trailers/medium_trailer_tandem.pcx 34 610 01 24 12 -3 -10
  185 sprites/standard_trailers/medium_trailer_tandem.pcx 66 610 09 20 26 -11 -9
  186 sprites/standard_trailers/medium_trailer_tandem.pcx 98 610 01 16 36 -14 -6
  187 sprites/standard_trailers/medium_trailer_tandem.pcx 146 610 09 20 26 -9 -7
  188 sprites/standard_trailers/medium_trailer_tandem.pcx 178 610 01 24 12 -9 -16
  189 sprites/standard_trailers/medium_trailer_tandem.pcx 210 610 09 20 26 -17 -7
  190 sprites/standard_trailers/medium_trailer_tandem.pcx 242 610 01 16 36 -30 -8
  191 sprites/standard_trailers/medium_trailer_tandem.pcx 290 610 09 20 26 -13 -10
  // Medium stake trailer - Wood, loading  
  192 sprites/standard_trailers/medium_trailer_tandem.pcx 34 650 01 24 12 -3 -10
  193 sprites/standard_trailers/medium_trailer_tandem.pcx 66 650 09 20 26 -11 -9
  194 sprites/standard_trailers/medium_trailer_tandem.pcx 98 650 01 16 36 -14 -6
  195 sprites/standard_trailers/medium_trailer_tandem.pcx 146 650 09 20 26 -9 -7
  196 sprites/standard_trailers/medium_trailer_tandem.pcx 178 650 01 24 12 -9 -16
  197 sprites/standard_trailers/medium_trailer_tandem.pcx 210 650 09 20 26 -17 -7
  198 sprites/standard_trailers/medium_trailer_tandem.pcx 242 650 01 16 36 -30 -8
  199 sprites/standard_trailers/medium_trailer_tandem.pcx 290 650 09 20 26 -13 -10
  // Medium stake trailer - Wood, loaded  
  200 sprites/standard_trailers/medium_trailer_tandem.pcx 34 690 01 24 12 -3 -10
  201 sprites/standard_trailers/medium_trailer_tandem.pcx 66 690 09 20 26 -11 -9
  202 sprites/standard_trailers/medium_trailer_tandem.pcx 98 690 01 16 36 -14 -6
  203 sprites/standard_trailers/medium_trailer_tandem.pcx 146 690 09 20 26 -9 -7
  204 sprites/standard_trailers/medium_trailer_tandem.pcx 178 690 01 24 12 -9 -16
  205 sprites/standard_trailers/medium_trailer_tandem.pcx 210 690 09 20 26 -17 -7
  206 sprites/standard_trailers/medium_trailer_tandem.pcx 242 690 01 16 36 -30 -8
  207 sprites/standard_trailers/medium_trailer_tandem.pcx 290 690 09 20 26 -13 -10
 // Medium flat trailer - livestock, loading  
  208 sprites/standard_trailers/medium_trailer_tandem.pcx 34 810 01 24 12 -3 -10
  209 sprites/standard_trailers/medium_trailer_tandem.pcx 66 810 09 20 26 -11 -9
  210 sprites/standard_trailers/medium_trailer_tandem.pcx 98 810 01 16 36 -14 -6
  211 sprites/standard_trailers/medium_trailer_tandem.pcx 146 810 09 20 26 -9 -7
  212 sprites/standard_trailers/medium_trailer_tandem.pcx 178 810 01 24 12 -9 -16
  213 sprites/standard_trailers/medium_trailer_tandem.pcx 210 810 09 20 26 -17 -7
  214 sprites/standard_trailers/medium_trailer_tandem.pcx 242 810 01 16 36 -30 -8
  215 sprites/standard_trailers/medium_trailer_tandem.pcx 290 810 09 20 26 -13 -10
 // Medium flat trailer - livestock, loaded
  216 sprites/standard_trailers/medium_trailer_tandem.pcx 34 810 01 24 12 -3 -10
  217 sprites/standard_trailers/medium_trailer_tandem.pcx 66 810 09 20 26 -11 -9
  218 sprites/standard_trailers/medium_trailer_tandem.pcx 98 810 01 16 36 -14 -6
  219 sprites/standard_trailers/medium_trailer_tandem.pcx 146 810 09 20 26 -9 -7
  220 sprites/standard_trailers/medium_trailer_tandem.pcx 178 810 01 24 12 -9 -16
  221 sprites/standard_trailers/medium_trailer_tandem.pcx 210 810 09 20 26 -17 -7
  222 sprites/standard_trailers/medium_trailer_tandem.pcx 242 810 01 16 36 -30 -8
  223 sprites/standard_trailers/medium_trailer_tandem.pcx 290 810 09 20 26 -13 -10
 // Medium flat trailer - copper, loading  
  224 sprites/standard_trailers/medium_trailer_tandem.pcx 34 10 01 24 12 -3 -10
  225 sprites/standard_trailers/medium_trailer_tandem.pcx 66 10 09 20 26 -11 -9
  226 sprites/standard_trailers/medium_trailer_tandem.pcx 98 10 01 16 36 -14 -6
  227 sprites/standard_trailers/medium_trailer_tandem.pcx 146 10 09 20 26 -9 -7
  228 sprites/standard_trailers/medium_trailer_tandem.pcx 178 10 01 24 12 -9 -16
  229 sprites/standard_trailers/medium_trailer_tandem.pcx 210 10 09 20 26 -17 -7
  230 sprites/standard_trailers/medium_trailer_tandem.pcx 242 10 01 16 36 -30 -8
  231 sprites/standard_trailers/medium_trailer_tandem.pcx 290 10 09 20 26 -13 -10
 // Medium flat trailer - copper, loaded  
  232 sprites/standard_trailers/medium_trailer_tandem.pcx 34 10 01 24 12 -3 -10
  233 sprites/standard_trailers/medium_trailer_tandem.pcx 66 10 09 20 26 -11 -9
  234 sprites/standard_trailers/medium_trailer_tandem.pcx 98 10 01 16 36 -14 -6
  235 sprites/standard_trailers/medium_trailer_tandem.pcx 146 10 09 20 26 -9 -7
  236 sprites/standard_trailers/medium_trailer_tandem.pcx 178 10 01 24 12 -9 -16
  237 sprites/standard_trailers/medium_trailer_tandem.pcx 210 10 09 20 26 -17 -7
  238 sprites/standard_trailers/medium_trailer_tandem.pcx 242 10 01 16 36 -30 -8
  239 sprites/standard_trailers/medium_trailer_tandem.pcx 290 10 09 20 26 -13 -10
  240 * 17	 02 01 09  03 03   00 00  01 00  02 00    00 00  01 00  02 00
  241 * 17	 02 01 0B  03 03   00 00  03 00  04 00    00 00  03 00  04 00
  242 * 17	 02 01 07  03 03   05 00  06 00  07 00    05 00  06 00  07 00
  243 * 17	 02 01 04  03 03   00 00  07 00  08 00    00 00  07 00  08 00
  244 * 17	 02 01 18  03 03   00 00  09 00  0A 00    00 00  09 00  0A 00 
  245 * 17	 02 01 19  03 03   00 00  09 00  0B 00    00 00  09 00  0B 00 // copper ? 
  // Medium tank trailer
  246 * 4	 01 01 01 08
  247 sprites/standard_trailers/medium_trailer_tandem.pcx 34 10 01 24 12 -3 -10
  248 sprites/standard_trailers/medium_trailer_tandem.pcx 66 10 09 20 26 -11 -9
  249 sprites/standard_trailers/medium_trailer_tandem.pcx 98 10 01 16 36 -14 -6
  250 sprites/standard_trailers/medium_trailer_tandem.pcx 146 10 09 20 26 -9 -7
  251 sprites/standard_trailers/medium_trailer_tandem.pcx 178 10 01 24 12 -9 -16
  252 sprites/standard_trailers/medium_trailer_tandem.pcx 210 10 09 20 26 -17 -7
  253 sprites/standard_trailers/medium_trailer_tandem.pcx 242 10 01 16 36 -30 -8
  254 sprites/standard_trailers/medium_trailer_tandem.pcx 290 10 09 20 26 -13 -10
  255 * 9	 02 01 03   01 01    00 00    00 00
  256 * 4	 01 01 01 08
  257 sprites/heqs2.pcx 770 424 01 18 8 -3 -10
  258 sprites/heqs2.pcx 2 456 09 16 20 -14 -7
  259 sprites/heqs2.pcx 34 456 01 12 28 -14 -6
  260 sprites/heqs2.pcx 82 456 09 16 20 -6 -8
  261 sprites/heqs2.pcx 114 456 01 18 8 -3 -10
  262 sprites/heqs2.pcx 130 456 09 16 20 -14 -8
  263 sprites/heqs2.pcx 162 456 01 12 28 -14 -6
  264 sprites/heqs2.pcx 210 456 09 16 20 -6 -7
  265 * 9	 02 01 0C   01 01    00 00    00 00
  // Var action 2 ID schema: B = bulk, C = Covered, F = Flat
  266 * 18	 02 01 AC  // text suffixes
                 81 F2 00 FF //
                 02 // range
                  00 80 00 00 // 
                  01 80 01 01 //  
                 FF 80
  // AB, AA contain some code to allow refit to multiple cargos, this is unused until additional sprites are drawn.
//!!Warning (100): Default ID appears earlier in sprite.
//!!Warning (100): Default ID appears earlier in sprite.
  267 * 18	 02 01 AB  // choose sprites according to refit
                 81 F2 00 FF //
                 02 // range
                  05 00 00 00 // 
                  05 00 01 01 // 
                 05 00 // default 
  268 * 14	 02 01 AA  // handle callbacks
                 81 0C 00 FF //
                 01 // range
                  04 80 11 11 // vehicle length CB
                  //AC 00 19 19 // text suffix CB 
                 05 00 // graphics
  269 * 49	 03 01 01 00 // Action 3
    0E // Number of different cargo types to support (!! Hex) 
    01 01 00 // coal
    03 03 00 // oil
    04 04 00 // livestock
    06 06 00 // grain 
    07 07 00 // wood
    08 08 00 // iron ore
	  09 09 00 // steel
	  0B 0B 00 // paper
	  0E 0E 00 // copper ore
	  0F 03 00 // water
	  10 03 00 // rubber
	  1B 06 00 // wheat
	  1D 06 00 // maize
	  1E 07 00 // tropical wood
	  AA 00 // default (box trailer)

   // ------------ end of Medium Trailers ------------------ //

  // -------------- Bulldozer Trailers --------------- //

  // Bulldozer trailer standard
       // Rough order of business here
       // Bulldozer trailers vary capacity depending on date vehicle is built
       // Can't get CB 36 to do that on build, only on refit (oh so close)
       // So instead define multiple vehicles using the same real sprites
       // Only difference is capacity
       // Lead vehicle chooses different trailers depending on date
       // This is inefficient on source code, also on ID use, but we have 255 IDs to play with so should be ok.
     // NOTE: Don't use IDs > 128 for trailers in articulated consists (lead vehicle ID can be > 128)
  270 * 67	 00 01 19 01 6E
      00 00 00  // intro date
      02 20     // reliability
      03 19     // vehicle life
      04 23     // class life
      06 00     // climate
      07 05     // load amount
      08 E0     // speed in mph * 3.2
      09 08     // running cost factor
      0A 48 4C 00 00 13 00 14 20    // running cost base
      0E FF     // sprite ID
      0F \b10     // capacity
      10 06     // cargo type
      11 00     // cost factor
      12 00     // sound effect
      15 38     // speed in mph * 0.8
      16 00 00 00 00    // Bit mask of cargo types available for refitting
      17 30     // Callback flags bit mask
      1A 00     // Refit cost, using 25% of the purchase price cost base
      1B 00     // Retire vehicle early, this many years before the end of phase 2
      1C 02     // Miscellaneous vehicle flags 
      1D FF 03      // Refittable cargo classes
      1E 01 00      // Non-refittable cargo classes
      1F 60 B3 0A 00    // Long format introduction date     
  271 * 67	 00 01 19 01 6F
      00 00 00  // intro date
      02 20     // reliability
      03 19     // vehicle life
      04 23     // class life
      06 00     // climate
      07 05     // load amount
      08 E0     // speed in mph * 3.2
      09 08     // running cost factor
      0A 48 4C 00 00 13 00 14 20    // running cost base
      0E FF     // sprite ID
      0F \b12     // capacity
      10 06     // cargo type
      11 00     // cost factor
      12 00     // sound effect
      15 38     // speed in mph * 0.8
      16 00 00 00 00    // Bit mask of cargo types available for refitting
      17 30     // Callback flags bit mask
      1A 00     // Refit cost, using 25% of the purchase price cost base
      1B 00     // Retire vehicle early, this many years before the end of phase 2
      1C 02     // Miscellaneous vehicle flags 
      1D FF 03      // Refittable cargo classes
      1E 01 00      // Non-refittable cargo classes
      1F 60 B3 0A 00    // Long format introduction date     
  272 * 67	 00 01 19 01 70
      00 00 00  // intro date
      02 20     // reliability
      03 19     // vehicle life
      04 23     // class life
      06 00     // climate
      07 05     // load amount
      08 E0     // speed in mph * 3.2
      09 08     // running cost factor
      0A 48 4C 00 00 13 00 14 20    // running cost base
      0E FF     // sprite ID
      0F \b14     // capacity
      10 06     // cargo type
      11 00     // cost factor
      12 00     // sound effect
      15 38     // speed in mph * 0.8
      16 00 00 00 00    // Bit mask of cargo types available for refitting
      17 30     // Callback flags bit mask
      1A 00     // Refit cost, using 25% of the purchase price cost base
      1B 00     // Retire vehicle early, this many years before the end of phase 2
      1C 02     // Miscellaneous vehicle flags 
      1D FF 03      // Refittable cargo classes
      1E 01 00      // Non-refittable cargo classes
      1F 60 B3 0A 00    // Long format introduction date     
  273 * 67	 00 01 19 01 71
      00 00 00  // intro date
      02 20     // reliability
      03 19     // vehicle life
      04 23     // class life
      06 00     // climate
      07 05     // load amount
      08 E0     // speed in mph * 3.2
      09 08     // running cost factor
      0A 48 4C 00 00 13 00 14 20    // running cost base
      0E FF     // sprite ID
      0F \b16     // capacity
      10 06     // cargo type
      11 00     // cost factor
      12 00     // sound effect
      15 38     // speed in mph * 0.8
      16 00 00 00 00    // Bit mask of cargo types available for refitting
      17 30     // Callback flags bit mask
      1A 00     // Refit cost, using 25% of the purchase price cost base
      1B 00     // Retire vehicle early, this many years before the end of phase 2
      1C 02     // Miscellaneous vehicle flags 
      1D FF 03      // Refittable cargo classes
      1E 01 00      // Non-refittable cargo classes
      1F 60 B3 0A 00    // Long format introduction date     
  274 * 67	 00 01 19 01 72
      00 00 00  // intro date
      02 20     // reliability
      03 19     // vehicle life
      04 23     // class life
      06 00     // climate
      07 05     // load amount
      08 E0     // speed in mph * 3.2
      09 08     // running cost factor
      0A 48 4C 00 00 13 00 14 20    // running cost base
      0E FF     // sprite ID
      0F \b19     // capacity
      10 06     // cargo type
      11 00     // cost factor
      12 00     // sound effect
      15 38     // speed in mph * 0.8
      16 00 00 00 00    // Bit mask of cargo types available for refitting
      17 30     // Callback flags bit mask
      1A 00     // Refit cost, using 25% of the purchase price cost base
      1B 00     // Retire vehicle early, this many years before the end of phase 2
      1C 02     // Miscellaneous vehicle flags 
      1D FF 03      // Refittable cargo classes
      1E 01 00      // Non-refittable cargo classes
      1F 60 B3 0A 00    // Long format introduction date     
  275 * 67	 00 01 19 01 73
      00 00 00  // intro date
      02 20     // reliability
      03 19     // vehicle life
      04 23     // class life
      06 00     // climate
      07 05     // load amount
      08 E0     // speed in mph * 3.2
      09 08     // running cost factor
      0A 48 4C 00 00 13 00 14 20    // running cost base
      0E FF     // sprite ID
      0F \b22     // capacity
      10 06     // cargo type
      11 00     // cost factor
      12 00     // sound effect
      15 38     // speed in mph * 0.8
      16 00 00 00 00    // Bit mask of cargo types available for refitting
      17 30     // Callback flags bit mask
      1A 00     // Refit cost, using 25% of the purchase price cost base
      1B 00     // Retire vehicle early, this many years before the end of phase 2
      1C 02     // Miscellaneous vehicle flags 
      1D FF 03      // Refittable cargo classes
      1E 01 00      // Non-refittable cargo classes
      1F 60 B3 0A 00    // Long format introduction date     
  276 * 42	 04 01 7F 01 70 "[Generic Standard bulldozer Trailer]" 00
  // define additional text suffixes
  277 * 33	 04 00 81 02 00 D0
            		" (Wheeled Trailer)" 00	// D000 = "1st class"
               	" (Sled)" 00	// D001 = "2nd class"
  // Action 2 ID schema: 0 / 1 = wheeled trailer, 2 / 3 = sled
   // Standard bulldozer Goods Trailer
  278 * 4	 01 01 01 08
  279 sprites/standard_trailers/medium_trailer_4_wheel.pcx 34 570 01 24 12 -3 -10
  280 sprites/standard_trailers/medium_trailer_4_wheel.pcx 66 570 01 20 26 -11 -9
  281 sprites/standard_trailers/medium_trailer_4_wheel.pcx 98 570 01 16 36 -15 -7
  282 sprites/standard_trailers/medium_trailer_4_wheel.pcx 146 570 01 20 26 -9 -7
  283 sprites/standard_trailers/medium_trailer_4_wheel.pcx 178 570 01 24 12 -9 -16
  284 sprites/standard_trailers/medium_trailer_4_wheel.pcx 210 570 01 20 26 -17 -7
  285 sprites/standard_trailers/medium_trailer_4_wheel.pcx 242 570 01 16 36 -19 -8
  286 sprites/standard_trailers/medium_trailer_4_wheel.pcx 290 570 01 20 26 -13 -10
  287 * 9	 02 01 05   01 01   00 00    00 00
   // Standard bulldozer Goods Sled
  288 * 4	 01 01 01 08
  289 sprites/standard_trailers/medium_sled.pcx 34 570 01 24 12 -3 -10
  290 sprites/standard_trailers/medium_sled.pcx 66 570 01 20 26 -11 -9
  291 sprites/standard_trailers/medium_sled.pcx 98 570 01 16 36 -15 -7
  292 sprites/standard_trailers/medium_sled.pcx 146 570 01 20 26 -9 -7
  293 sprites/standard_trailers/medium_sled.pcx 178 570 01 24 12 -9 -16
  294 sprites/standard_trailers/medium_sled.pcx 210 570 01 20 26 -17 -7
  295 sprites/standard_trailers/medium_sled.pcx 242 570 01 16 36 -19 -8
  296 sprites/standard_trailers/medium_sled.pcx 290 570 01 20 26 -13 -10
  297 * 9	 02 01 25   01 01   00 00    00 00
   // Standard bulldozer end dump trailer - empty
  298 * 4	 01 01 0D 08
  299 sprites/standard_trailers/medium_trailer_4_wheel.pcx 34 50 01 24 12 -3 -10
  300 sprites/standard_trailers/medium_trailer_4_wheel.pcx 66 50 09 20 26 -11 -9
  301 sprites/standard_trailers/medium_trailer_4_wheel.pcx 98 50 01 16 36 -15 -7
  302 sprites/standard_trailers/medium_trailer_4_wheel.pcx 146 50 09 20 26 -9 -7
  303 sprites/standard_trailers/medium_trailer_4_wheel.pcx 178 50 01 24 12 -9 -16
  304 sprites/standard_trailers/medium_trailer_4_wheel.pcx 210 50 09 20 26 -17 -7
  305 sprites/standard_trailers/medium_trailer_4_wheel.pcx 242 50 01 16 36 -19 -8
  306 sprites/standard_trailers/medium_trailer_4_wheel.pcx 290 50 09 20 26 -13 -10
   // Standard bulldozer end dump - iron ore, loading
  307 sprites/standard_trailers/medium_trailer_4_wheel.pcx 34 490 01 24 12 -3 -10
  308 sprites/standard_trailers/medium_trailer_4_wheel.pcx 66 490 09 20 20 -11 -9
  309 sprites/standard_trailers/medium_trailer_4_wheel.pcx 98 490 01 16 36 -15 -7
  310 sprites/standard_trailers/medium_trailer_4_wheel.pcx 146 490 09 20 26 -9 -7
  311 sprites/standard_trailers/medium_trailer_4_wheel.pcx 178 490 01 24 12 -9 -16
  312 sprites/standard_trailers/medium_trailer_4_wheel.pcx 210 490 09 20 26 -17 -7
  313 sprites/standard_trailers/medium_trailer_4_wheel.pcx 242 490 01 16 36 -19 -8
  314 sprites/standard_trailers/medium_trailer_4_wheel.pcx 290 490 09 20 26 -13 -10
   // Standard bulldozer end dump - iron ore, loaded
  315 sprites/standard_trailers/medium_trailer_4_wheel.pcx 34 530 01 24 12 -3 -10
  316 sprites/standard_trailers/medium_trailer_4_wheel.pcx 66 530 09 20 20 -11 -9
  317 sprites/standard_trailers/medium_trailer_4_wheel.pcx 98 530 01 16 36 -15 -7
  318 sprites/standard_trailers/medium_trailer_4_wheel.pcx 146 530 09 20 26 -9 -7
  319 sprites/standard_trailers/medium_trailer_4_wheel.pcx 178 530 01 24 12 -9 -16
  320 sprites/standard_trailers/medium_trailer_4_wheel.pcx 210 530 09 20 26 -17 -7
  321 sprites/standard_trailers/medium_trailer_4_wheel.pcx 242 530 01 16 36 -19 -8
  322 sprites/standard_trailers/medium_trailer_4_wheel.pcx 290 530 09 20 26 -13 -10
   // Standard bulldozer end dump - coal, loading
  323 sprites/standard_trailers/medium_trailer_4_wheel.pcx 34 170 01 24 12 -3 -10
  324 sprites/standard_trailers/medium_trailer_4_wheel.pcx 66 170 09 20 26 -11 -9
  325 sprites/standard_trailers/medium_trailer_4_wheel.pcx 98 170 01 16 36 -15 -7
  326 sprites/standard_trailers/medium_trailer_4_wheel.pcx 146 170 09 20 26 -9 -7
  327 sprites/standard_trailers/medium_trailer_4_wheel.pcx 178 170 01 24 12 -9 -16
  328 sprites/standard_trailers/medium_trailer_4_wheel.pcx 210 170 09 20 26 -17 -7
  329 sprites/standard_trailers/medium_trailer_4_wheel.pcx 242 170 01 16 36 -19 -8
  330 sprites/standard_trailers/medium_trailer_4_wheel.pcx 290 170 09 20 26 -13 -10
   // Standard bulldozer end dump - coal, loaded
  331 sprites/standard_trailers/medium_trailer_4_wheel.pcx 34 210 01 24 12 -3 -10
  332 sprites/standard_trailers/medium_trailer_4_wheel.pcx 66 210 09 20 26 -11 -9
  333 sprites/standard_trailers/medium_trailer_4_wheel.pcx 98 210 01 16 36 -15 -7
  334 sprites/standard_trailers/medium_trailer_4_wheel.pcx 146 210 09 20 26 -9 -7
  335 sprites/standard_trailers/medium_trailer_4_wheel.pcx 178 210 01 24 12 -9 -16
  336 sprites/standard_trailers/medium_trailer_4_wheel.pcx 210 210 09 20 26 -17 -7
  337 sprites/standard_trailers/medium_trailer_4_wheel.pcx 242 210 01 16 36 -19 -8
  338 sprites/standard_trailers/medium_trailer_4_wheel.pcx 290 210 09 20 26 -13 -10
   // Standard bulldozer end dump - grain, loading
  339 sprites/standard_trailers/medium_trailer_4_wheel.pcx 34 250 01 24 12 -3 -10
  340 sprites/standard_trailers/medium_trailer_4_wheel.pcx 66 250 09 20 26 -11 -9
  341 sprites/standard_trailers/medium_trailer_4_wheel.pcx 98 250 01 16 36 -15 -7
  342 sprites/standard_trailers/medium_trailer_4_wheel.pcx 146 250 09 20 26 -9 -7
  343 sprites/standard_trailers/medium_trailer_4_wheel.pcx 178 250 01 24 12 -9 -16
  344 sprites/standard_trailers/medium_trailer_4_wheel.pcx 210 250 09 20 26 -17 -7
  345 sprites/standard_trailers/medium_trailer_4_wheel.pcx 242 250 01 16 36 -19 -8
  346 sprites/standard_trailers/medium_trailer_4_wheel.pcx 290 250 09 20 26 -13 -10
  // Standard bulldozer end dump - grain, loaded
  347 sprites/standard_trailers/medium_trailer_4_wheel.pcx 34 290 01 24 12 -3 -10
  348 sprites/standard_trailers/medium_trailer_4_wheel.pcx 66 290 09 20 26 -11 -9
  349 sprites/standard_trailers/medium_trailer_4_wheel.pcx 98 290 01 16 36 -15 -7
  350 sprites/standard_trailers/medium_trailer_4_wheel.pcx 146 290 09 20 26 -9 -7
  351 sprites/standard_trailers/medium_trailer_4_wheel.pcx 178 290 01 24 12 -9 -16
  352 sprites/standard_trailers/medium_trailer_4_wheel.pcx 210 290 09 20 26 -17 -7
  353 sprites/standard_trailers/medium_trailer_4_wheel.pcx 242 290 01 16 36 -19 -8
  354 sprites/standard_trailers/medium_trailer_4_wheel.pcx 290 290 09 20 26 -13 -10
  // Standard bulldozer end dump - brown, loading
  355 sprites/standard_trailers/medium_trailer_4_wheel.pcx 34 410 01 24 12 -3 -10
  356 sprites/standard_trailers/medium_trailer_4_wheel.pcx 66 410 09 20 26 -11 -9
  357 sprites/standard_trailers/medium_trailer_4_wheel.pcx 98 410 01 16 36 -15 -7
  358 sprites/standard_trailers/medium_trailer_4_wheel.pcx 146 410 09 20 26 -9 -7
  359 sprites/standard_trailers/medium_trailer_4_wheel.pcx 178 410 01 24 12 -9 -16
  360 sprites/standard_trailers/medium_trailer_4_wheel.pcx 210 410 09 20 26 -17 -7
  361 sprites/standard_trailers/medium_trailer_4_wheel.pcx 242 410 01 16 36 -19 -8
  362 sprites/standard_trailers/medium_trailer_4_wheel.pcx 290 410 09 20 26 -13 -10
  // Standard bulldozer end dump - brown, loaded
  363 sprites/standard_trailers/medium_trailer_4_wheel.pcx 34 450 01 24 12 -3 -10
  364 sprites/standard_trailers/medium_trailer_4_wheel.pcx 66 450 09 20 26 -11 -9
  365 sprites/standard_trailers/medium_trailer_4_wheel.pcx 98 450 01 16 36 -15 -7
  366 sprites/standard_trailers/medium_trailer_4_wheel.pcx 146 450 09 20 26 -9 -7
  367 sprites/standard_trailers/medium_trailer_4_wheel.pcx 178 450 01 24 12 -9 -16
  368 sprites/standard_trailers/medium_trailer_4_wheel.pcx 210 450 09 20 26 -17 -7
  369 sprites/standard_trailers/medium_trailer_4_wheel.pcx 242 450 01 16 36 -19 -8
  370 sprites/standard_trailers/medium_trailer_4_wheel.pcx 290 450 09 20 26 -13 -10
  // Standard bulldozer end dump - red, loading
  371 sprites/standard_trailers/medium_trailer_4_wheel.pcx 34 370 01 24 12 -3 -10
  372 sprites/standard_trailers/medium_trailer_4_wheel.pcx 66 370 09 20 26 -11 -9
  373 sprites/standard_trailers/medium_trailer_4_wheel.pcx 98 370 01 16 36 -15 -7
  374 sprites/standard_trailers/medium_trailer_4_wheel.pcx 146 370 09 20 26 -9 -7
  375 sprites/standard_trailers/medium_trailer_4_wheel.pcx 178 370 01 24 12 -9 -16
  376 sprites/standard_trailers/medium_trailer_4_wheel.pcx 210 370 09 20 26 -17 -7
  377 sprites/standard_trailers/medium_trailer_4_wheel.pcx 242 370 01 16 36 -19 -8
  378 sprites/standard_trailers/medium_trailer_4_wheel.pcx 290 370 09 20 26 -13 -10
  // Standard bulldozer end dump - red, loaded
  379 sprites/standard_trailers/medium_trailer_4_wheel.pcx 34 370 01 24 12 -3 -10
  380 sprites/standard_trailers/medium_trailer_4_wheel.pcx 66 370 09 20 26 -11 -9
  381 sprites/standard_trailers/medium_trailer_4_wheel.pcx 98 370 01 16 36 -15 -7
  382 sprites/standard_trailers/medium_trailer_4_wheel.pcx 146 370 09 20 26 -9 -7
  383 sprites/standard_trailers/medium_trailer_4_wheel.pcx 178 370 01 24 12 -9 -16
  384 sprites/standard_trailers/medium_trailer_4_wheel.pcx 210 370 09 20 26 -17 -7
  385 sprites/standard_trailers/medium_trailer_4_wheel.pcx 242 370 01 16 36 -19 -8
  386 sprites/standard_trailers/medium_trailer_4_wheel.pcx 290 370 09 20 26 -13 -10
  // Standard bulldozer end dump - grey, loading
  387 sprites/standard_trailers/medium_trailer_4_wheel.pcx 34 90 01 24 12 -3 -10
  388 sprites/standard_trailers/medium_trailer_4_wheel.pcx 66 90 09 20 26 -11 -9
  389 sprites/standard_trailers/medium_trailer_4_wheel.pcx 98 90 01 16 36 -15 -7
  390 sprites/standard_trailers/medium_trailer_4_wheel.pcx 146 90 09 20 26 -9 -7
  391 sprites/standard_trailers/medium_trailer_4_wheel.pcx 178 90 01 24 12 -9 -16
  392 sprites/standard_trailers/medium_trailer_4_wheel.pcx 210 90 09 20 26 -17 -7
  393 sprites/standard_trailers/medium_trailer_4_wheel.pcx 242 90 01 16 36 -19 -8
  394 sprites/standard_trailers/medium_trailer_4_wheel.pcx 290 90 09 20 26 -13 -10
  // Standard bulldozer end dump - grey, loaded
  395 sprites/standard_trailers/medium_trailer_4_wheel.pcx 34 130 01 24 12 -3 -10
  396 sprites/standard_trailers/medium_trailer_4_wheel.pcx 66 130 09 20 26 -11 -9
  397 sprites/standard_trailers/medium_trailer_4_wheel.pcx 98 130 01 16 36 -15 -7
  398 sprites/standard_trailers/medium_trailer_4_wheel.pcx 146 130 09 20 26 -9 -7
  399 sprites/standard_trailers/medium_trailer_4_wheel.pcx 178 130 01 24 12 -9 -16
  400 sprites/standard_trailers/medium_trailer_4_wheel.pcx 210 130 09 20 26 -17 -7
  401 sprites/standard_trailers/medium_trailer_4_wheel.pcx 242 130 01 16 36 -19 -8
  402 sprites/standard_trailers/medium_trailer_4_wheel.pcx 290 130 09 20 26 -13 -10
  403 * 17	 02 01 08  03 03    00 00  01 00  02 00    00 00  01 00  02 00 // iron ore ?
  404 * 17	 02 01 01  03 03    00 00  03 00  04 00    00 00  03 00  04 00 // coal ?
  405 * 17	 02 01 06  03 03    00 00  05 00  06 00    00 00  05 00  06 00 // grain ?
  406 * 17	 02 01 0E  03 03    00 00  07 00  08 00    00 00  07 00  08 00 // brown ?
//!!Warning (94): Redefining ID 0C not used since previous definition at sprite 265.
  407 * 17	 02 01 0C  03 03    00 00  09 00  0A 00    00 00  09 00  0A 00 // red ?
  408 * 17	 02 01 0D  03 03    00 00  0B 00  0C 00    00 00  0B 00  0C 00 // grey ?
  // Standard bulldozer side dump sled - empty
  409 * 4	 01 01 0D 08
  410 sprites/standard_trailers/medium_sled.pcx 34 50 01 24 12 -3 -10
  411 sprites/standard_trailers/medium_sled.pcx 66 50 09 20 26 -11 -9
  412 sprites/standard_trailers/medium_sled.pcx 98 50 01 16 36 -15 -7
  413 sprites/standard_trailers/medium_sled.pcx 146 50 09 20 26 -9 -7
  414 sprites/standard_trailers/medium_sled.pcx 178 50 01 24 12 -9 -16
  415 sprites/standard_trailers/medium_sled.pcx 210 50 09 20 26 -17 -7
  416 sprites/standard_trailers/medium_sled.pcx 242 50 01 16 36 -19 -8
  417 sprites/standard_trailers/medium_sled.pcx 290 50 09 20 26 -13 -10
   // Standard bulldozer side dump sled - iron ore, loading  !! this isn't iron ore??
  418 sprites/standard_trailers/medium_sled.pcx 34 490 01 24 12 -3 -10
  419 sprites/standard_trailers/medium_sled.pcx 66 490 09 20 20 -11 -9
  420 sprites/standard_trailers/medium_sled.pcx 98 490 01 16 36 -15 -7
  421 sprites/standard_trailers/medium_sled.pcx 146 490 09 20 26 -9 -7
  422 sprites/standard_trailers/medium_sled.pcx 178 490 01 24 12 -9 -16
  423 sprites/standard_trailers/medium_sled.pcx 210 490 09 20 26 -17 -7
  424 sprites/standard_trailers/medium_sled.pcx 242 490 01 16 36 -19 -8
  425 sprites/standard_trailers/medium_sled.pcx 290 490 09 20 26 -13 -10
   // Standard bulldozer side dump sled - iron ore, loaded  !! this isn't iron ore??
  426 sprites/standard_trailers/medium_sled.pcx 34 530 01 24 12 -3 -10
  427 sprites/standard_trailers/medium_sled.pcx 66 530 09 20 20 -11 -9
  428 sprites/standard_trailers/medium_sled.pcx 98 530 01 16 36 -15 -7
  429 sprites/standard_trailers/medium_sled.pcx 146 530 09 20 26 -9 -7
  430 sprites/standard_trailers/medium_sled.pcx 178 530 01 24 12 -9 -16
  431 sprites/standard_trailers/medium_sled.pcx 210 530 09 20 26 -17 -7
  432 sprites/standard_trailers/medium_sled.pcx 242 530 01 16 36 -19 -8
  433 sprites/standard_trailers/medium_sled.pcx 290 530 09 20 26 -13 -10
   // Standard bulldozer side dump sled - coal, loading
  434 sprites/standard_trailers/medium_sled.pcx 34 170 01 24 12 -3 -10
  435 sprites/standard_trailers/medium_sled.pcx 66 170 09 20 26 -11 -9
  436 sprites/standard_trailers/medium_sled.pcx 98 170 01 16 36 -15 -7
  437 sprites/standard_trailers/medium_sled.pcx 146 170 09 20 26 -9 -7
  438 sprites/standard_trailers/medium_sled.pcx 178 170 01 24 12 -9 -16
  439 sprites/standard_trailers/medium_sled.pcx 210 170 09 20 26 -17 -7
  440 sprites/standard_trailers/medium_sled.pcx 242 170 01 16 36 -19 -8
  441 sprites/standard_trailers/medium_sled.pcx 290 170 09 20 26 -13 -10
   // Standard bulldozer side dump sled - coal, loaded
  442 sprites/standard_trailers/medium_sled.pcx 34 210 01 24 12 -3 -10
  443 sprites/standard_trailers/medium_sled.pcx 66 210 09 20 26 -11 -9
  444 sprites/standard_trailers/medium_sled.pcx 98 210 01 16 36 -15 -7
  445 sprites/standard_trailers/medium_sled.pcx 146 210 09 20 26 -9 -7
  446 sprites/standard_trailers/medium_sled.pcx 178 210 01 24 12 -9 -16
  447 sprites/standard_trailers/medium_sled.pcx 210 210 09 20 26 -17 -7
  448 sprites/standard_trailers/medium_sled.pcx 242 210 01 16 36 -19 -8
  449 sprites/standard_trailers/medium_sled.pcx 290 210 09 20 26 -13 -10
   // Standard bulldozer side dump sled - grain, loading
  450 sprites/standard_trailers/medium_sled.pcx 34 250 01 24 12 -3 -10
  451 sprites/standard_trailers/medium_sled.pcx 66 250 09 20 26 -11 -9
  452 sprites/standard_trailers/medium_sled.pcx 98 250 01 16 36 -15 -7
  453 sprites/standard_trailers/medium_sled.pcx 146 250 09 20 26 -9 -7
  454 sprites/standard_trailers/medium_sled.pcx 178 250 01 24 12 -9 -16
  455 sprites/standard_trailers/medium_sled.pcx 210 250 09 20 26 -17 -7
  456 sprites/standard_trailers/medium_sled.pcx 242 250 01 16 36 -19 -8
  457 sprites/standard_trailers/medium_sled.pcx 290 250 09 20 26 -13 -10
  // Standard bulldozer side dump sled - grain, loaded
  458 sprites/standard_trailers/medium_sled.pcx 34 290 01 24 12 -3 -10
  459 sprites/standard_trailers/medium_sled.pcx 66 290 09 20 26 -11 -9
  460 sprites/standard_trailers/medium_sled.pcx 98 290 01 16 36 -15 -7
  461 sprites/standard_trailers/medium_sled.pcx 146 290 09 20 26 -9 -7
  462 sprites/standard_trailers/medium_sled.pcx 178 290 01 24 12 -9 -16
  463 sprites/standard_trailers/medium_sled.pcx 210 290 09 20 26 -17 -7
  464 sprites/standard_trailers/medium_sled.pcx 242 290 01 16 36 -19 -8
  465 sprites/standard_trailers/medium_sled.pcx 290 290 09 20 26 -13 -10
  // Standard bulldozer side dump sled - brown, loading
  466 sprites/standard_trailers/medium_sled.pcx 34 410 01 24 12 -3 -10
  467 sprites/standard_trailers/medium_sled.pcx 66 410 09 20 26 -11 -9
  468 sprites/standard_trailers/medium_sled.pcx 98 410 01 16 36 -15 -7
  469 sprites/standard_trailers/medium_sled.pcx 146 410 09 20 26 -9 -7
  470 sprites/standard_trailers/medium_sled.pcx 178 410 01 24 12 -9 -16
  471 sprites/standard_trailers/medium_sled.pcx 210 410 09 20 26 -17 -7
  472 sprites/standard_trailers/medium_sled.pcx 242 410 01 16 36 -19 -8
  473 sprites/standard_trailers/medium_sled.pcx 290 410 09 20 26 -13 -10
  // Standard bulldozer side dump sled - brown, loaded
  474 sprites/standard_trailers/medium_sled.pcx 34 450 01 24 12 -3 -10
  475 sprites/standard_trailers/medium_sled.pcx 66 450 09 20 26 -11 -9
  476 sprites/standard_trailers/medium_sled.pcx 98 450 01 16 36 -15 -7
  477 sprites/standard_trailers/medium_sled.pcx 146 450 09 20 26 -9 -7
  478 sprites/standard_trailers/medium_sled.pcx 178 450 01 24 12 -9 -16
  479 sprites/standard_trailers/medium_sled.pcx 210 450 09 20 26 -17 -7
  480 sprites/standard_trailers/medium_sled.pcx 242 450 01 16 36 -19 -8
  481 sprites/standard_trailers/medium_sled.pcx 290 450 09 20 26 -13 -10
  // Standard bulldozer side dump sled - red, loading
  482 sprites/standard_trailers/medium_sled.pcx 34 330 01 24 12 -3 -10
  483 sprites/standard_trailers/medium_sled.pcx 66 330 09 20 26 -11 -9
  484 sprites/standard_trailers/medium_sled.pcx 98 330 01 16 36 -15 -7
  485 sprites/standard_trailers/medium_sled.pcx 146 330 09 20 26 -9 -7
  486 sprites/standard_trailers/medium_sled.pcx 178 330 01 24 12 -9 -16
  487 sprites/standard_trailers/medium_sled.pcx 210 330 09 20 26 -17 -7
  488 sprites/standard_trailers/medium_sled.pcx 242 330 01 16 36 -19 -8
  489 sprites/standard_trailers/medium_sled.pcx 290 330 09 20 26 -13 -10
  // Standard bulldozer side dump sled - red, loaded
  490 sprites/standard_trailers/medium_sled.pcx 34 370 01 24 12 -3 -10
  491 sprites/standard_trailers/medium_sled.pcx 66 370 09 20 26 -11 -9
  492 sprites/standard_trailers/medium_sled.pcx 98 370 01 16 36 -15 -7
  493 sprites/standard_trailers/medium_sled.pcx 146 370 09 20 26 -9 -7
  494 sprites/standard_trailers/medium_sled.pcx 178 370 01 24 12 -9 -16
  495 sprites/standard_trailers/medium_sled.pcx 210 370 09 20 26 -17 -7
  496 sprites/standard_trailers/medium_sled.pcx 242 370 01 16 36 -19 -8
  497 sprites/standard_trailers/medium_sled.pcx 290 370 09 20 26 -13 -10
  // Standard bulldozer side dump sled - grey, loading
  498 sprites/standard_trailers/medium_sled.pcx 34 90 01 24 12 -3 -10
  499 sprites/standard_trailers/medium_sled.pcx 66 90 09 20 26 -11 -9
  500 sprites/standard_trailers/medium_sled.pcx 98 90 01 16 36 -15 -7
  501 sprites/standard_trailers/medium_sled.pcx 146 90 09 20 26 -9 -7
  502 sprites/standard_trailers/medium_sled.pcx 178 90 01 24 12 -9 -16
  503 sprites/standard_trailers/medium_sled.pcx 210 90 09 20 26 -17 -7
  504 sprites/standard_trailers/medium_sled.pcx 242 90 01 16 36 -19 -8
  505 sprites/standard_trailers/medium_sled.pcx 290 90 09 20 26 -13 -10
  // Standard bulldozer side dump sled - grey, loaded
  506 sprites/standard_trailers/medium_sled.pcx 34 130 01 24 12 -3 -10
  507 sprites/standard_trailers/medium_sled.pcx 66 130 09 20 26 -11 -9
  508 sprites/standard_trailers/medium_sled.pcx 98 130 01 16 36 -15 -7
  509 sprites/standard_trailers/medium_sled.pcx 146 130 09 20 26 -9 -7
  510 sprites/standard_trailers/medium_sled.pcx 178 130 01 24 12 -9 -16
  511 sprites/standard_trailers/medium_sled.pcx 210 130 09 20 26 -17 -7
  512 sprites/standard_trailers/medium_sled.pcx 242 130 01 16 36 -19 -8
  513 sprites/standard_trailers/medium_sled.pcx 290 130 09 20 26 -13 -10
  514 * 17	 02 01 28  03 03    00 00  01 00  02 00    00 00  01 00  02 00 // iron ore ?
  515 * 17	 02 01 21  03 03    00 00  03 00  04 00    00 00  03 00  04 00 // coal ?
  516 * 17	 02 01 26  03 03    00 00  05 00  06 00    00 00  05 00  06 00 // grain ?
  517 * 17	 02 01 2E  03 03    00 00  07 00  08 00    00 00  07 00  08 00 // brown ?
  518 * 17	 02 01 2C  03 03    00 00  09 00  0A 00    00 00  09 00  0A 00 // red ?
  519 * 17	 02 01 2D  03 03    00 00  0B 00  0C 00    00 00  0B 00  0C 00 // grey ?
  // Standard bulldozer flat trailer
  520 * 4	 01 01 09 08
  // Standard bulldozer flat trailer - empty
  521 sprites/standard_trailers/medium_trailer_4_wheel.pcx 34 730 01 24 12 -3 -10
  522 sprites/standard_trailers/medium_trailer_4_wheel.pcx 66 730 09 20 26 -11 -9
  523 sprites/standard_trailers/medium_trailer_4_wheel.pcx 98 730 01 16 36 -15 -7
  524 sprites/standard_trailers/medium_trailer_4_wheel.pcx 146 730 09 20 26 -9 -7
  525 sprites/standard_trailers/medium_trailer_4_wheel.pcx 178 730 01 24 12 -9 -16
  526 sprites/standard_trailers/medium_trailer_4_wheel.pcx 210 730 09 20 26 -17 -7
  527 sprites/standard_trailers/medium_trailer_4_wheel.pcx 242 730 01 16 36 -19 -8
  528 sprites/standard_trailers/medium_trailer_4_wheel.pcx 290 730 09 20 26 -13 -10
  // Standard bulldozer flat trailer - steel, loading  
  529 sprites/standard_trailers/medium_trailer_4_wheel.pcx 34 970 01 24 12 -3 -10
  530 sprites/standard_trailers/medium_trailer_4_wheel.pcx 66 970 09 20 26 -11 -9
  531 sprites/standard_trailers/medium_trailer_4_wheel.pcx 98 970 01 16 36 -15 -7
  532 sprites/standard_trailers/medium_trailer_4_wheel.pcx 146 970 09 20 26 -9 -7
  533 sprites/standard_trailers/medium_trailer_4_wheel.pcx 178 970 01 24 12 -9 -16
  534 sprites/standard_trailers/medium_trailer_4_wheel.pcx 210 970 09 20 26 -17 -7
  535 sprites/standard_trailers/medium_trailer_4_wheel.pcx 242 970 01 16 36 -19 -8
  536 sprites/standard_trailers/medium_trailer_4_wheel.pcx 290 970 09 20 26 -13 -10
  // Standard bulldozer flat trailer - steel, loaded  
  537 sprites/standard_trailers/medium_trailer_4_wheel.pcx 34 970 01 24 12 -3 -10
  538 sprites/standard_trailers/medium_trailer_4_wheel.pcx 66 970 09 20 26 -11 -9
  539 sprites/standard_trailers/medium_trailer_4_wheel.pcx 98 970 01 16 36 -15 -7
  540 sprites/standard_trailers/medium_trailer_4_wheel.pcx 146 970 09 20 26 -9 -7
  541 sprites/standard_trailers/medium_trailer_4_wheel.pcx 178 970 01 24 12 -9 -16
  542 sprites/standard_trailers/medium_trailer_4_wheel.pcx 210 970 09 20 26 -17 -7
  543 sprites/standard_trailers/medium_trailer_4_wheel.pcx 242 970 01 16 36 -19 -8
  544 sprites/standard_trailers/medium_trailer_4_wheel.pcx 290 970 09 20 26 -13 -10
  // Standard bulldozer flat trailer - paper, loading  
  545 sprites/standard_trailers/medium_trailer_4_wheel.pcx 34 1130 01 24 12 -3 -10
  546 sprites/standard_trailers/medium_trailer_4_wheel.pcx 66 1130 09 20 26 -11 -9
  547 sprites/standard_trailers/medium_trailer_4_wheel.pcx 98 1130 01 16 36 -15 -7
  548 sprites/standard_trailers/medium_trailer_4_wheel.pcx 146 1130 09 20 26 -9 -7
  549 sprites/standard_trailers/medium_trailer_4_wheel.pcx 178 1130 01 24 12 -9 -16
  550 sprites/standard_trailers/medium_trailer_4_wheel.pcx 210 1130 09 20 26 -17 -7
  551 sprites/standard_trailers/medium_trailer_4_wheel.pcx 242 1130 01 16 36 -19 -8
  552 sprites/standard_trailers/medium_trailer_4_wheel.pcx 290 1130 09 20 26 -13 -10
  // Standard bulldozer flat trailer - paper, loaded  
  553 sprites/standard_trailers/medium_trailer_4_wheel.pcx 34 1130 01 24 12 -3 -10
  554 sprites/standard_trailers/medium_trailer_4_wheel.pcx 66 1130 09 20 26 -11 -9
  555 sprites/standard_trailers/medium_trailer_4_wheel.pcx 98 1130 01 16 36 -15 -7
  556 sprites/standard_trailers/medium_trailer_4_wheel.pcx 146 1130 09 20 26 -9 -7
  557 sprites/standard_trailers/medium_trailer_4_wheel.pcx 178 1130 01 24 12 -9 -16
  558 sprites/standard_trailers/medium_trailer_4_wheel.pcx 210 1130 09 20 26 -17 -7
  559 sprites/standard_trailers/medium_trailer_4_wheel.pcx 242 1130 01 16 36 -19 -8
  560 sprites/standard_trailers/medium_trailer_4_wheel.pcx 290 1130 09 20 26 -13 -10
 // Standard bulldozer flat trailer - livestock, loading  
  561 sprites/standard_trailers/medium_trailer_4_wheel.pcx 34 810 01 24 12 -3 -10
  562 sprites/standard_trailers/medium_trailer_4_wheel.pcx 66 810 09 20 26 -11 -9
  563 sprites/standard_trailers/medium_trailer_4_wheel.pcx 98 810 01 16 36 -15 -7
  564 sprites/standard_trailers/medium_trailer_4_wheel.pcx 146 810 09 20 26 -9 -7
  565 sprites/standard_trailers/medium_trailer_4_wheel.pcx 178 810 01 24 12 -9 -16
  566 sprites/standard_trailers/medium_trailer_4_wheel.pcx 210 810 09 20 26 -17 -7
  567 sprites/standard_trailers/medium_trailer_4_wheel.pcx 242 810 01 16 36 -19 -8
  568 sprites/standard_trailers/medium_trailer_4_wheel.pcx 290 810 09 20 26 -13 -10
 // Standard bulldozer flat trailer - livestock, loaded
  569 sprites/standard_trailers/medium_trailer_4_wheel.pcx 34 810 01 24 12 -3 -10
  570 sprites/standard_trailers/medium_trailer_4_wheel.pcx 66 810 09 20 26 -11 -9
  571 sprites/standard_trailers/medium_trailer_4_wheel.pcx 98 810 01 16 36 -15 -7
  572 sprites/standard_trailers/medium_trailer_4_wheel.pcx 146 810 09 20 26 -9 -7
  573 sprites/standard_trailers/medium_trailer_4_wheel.pcx 178 810 01 24 12 -9 -16
  574 sprites/standard_trailers/medium_trailer_4_wheel.pcx 210 810 09 20 26 -17 -7
  575 sprites/standard_trailers/medium_trailer_4_wheel.pcx 242 810 01 16 36 -19 -8
  576 sprites/standard_trailers/medium_trailer_4_wheel.pcx 290 810 09 20 26 -13 -10
 // Standard bulldozer flat trailer - copper, loading  
  577 sprites/standard_trailers/medium_trailer_4_wheel.pcx 34 1050 01 24 12 -3 -10
  578 sprites/standard_trailers/medium_trailer_4_wheel.pcx 66 1050 09 20 26 -11 -9
  579 sprites/standard_trailers/medium_trailer_4_wheel.pcx 98 1050 01 16 36 -15 -7
  580 sprites/standard_trailers/medium_trailer_4_wheel.pcx 146 1050 09 20 26 -9 -7
  581 sprites/standard_trailers/medium_trailer_4_wheel.pcx 178 1050 01 24 12 -9 -16
  582 sprites/standard_trailers/medium_trailer_4_wheel.pcx 210 1050 09 20 26 -17 -7
  583 sprites/standard_trailers/medium_trailer_4_wheel.pcx 242 1050 01 16 36 -19 -8
  584 sprites/standard_trailers/medium_trailer_4_wheel.pcx 290 1050 09 20 26 -13 -10
 // Standard bulldozer flat trailer - copper, loaded  
  585 sprites/standard_trailers/medium_trailer_4_wheel.pcx 34 1050 01 24 12 -3 -10
  586 sprites/standard_trailers/medium_trailer_4_wheel.pcx 66 1050 09 20 26 -11 -9
  587 sprites/standard_trailers/medium_trailer_4_wheel.pcx 98 1050 01 16 36 -15 -7
  588 sprites/standard_trailers/medium_trailer_4_wheel.pcx 146 1050 09 20 26 -9 -7
  589 sprites/standard_trailers/medium_trailer_4_wheel.pcx 178 1050 01 24 12 -9 -16
  590 sprites/standard_trailers/medium_trailer_4_wheel.pcx 210 1050 09 20 26 -17 -7
  591 sprites/standard_trailers/medium_trailer_4_wheel.pcx 242 1050 01 16 36 -19 -8
  592 sprites/standard_trailers/medium_trailer_4_wheel.pcx 290 1050 09 20 26 -13 -10
  593 * 17	 02 01 09  03 03   00 00  01 00  02 00    00 00  01 00  02 00 // steel
  594 * 17	 02 01 0B  03 03   00 00  03 00  04 00    00 00  03 00  04 00 // paper
  595 * 17	 02 01 04  03 03   00 00  05 00  06 00    00 00  05 00  06 00 // livestock
  596 * 17	 02 01 0F  03 03   00 00  07 00  08 00    00 00  07 00  08 00 // copper
  // Standard bulldozer flat sled
  597 * 4	 01 01 09 08
  // Standard bulldozer flat sled - empty
  598 sprites/standard_trailers/medium_sled.pcx 34 730 01 24 12 -3 -10
  599 sprites/standard_trailers/medium_sled.pcx 66 730 09 20 26 -11 -9
  600 sprites/standard_trailers/medium_sled.pcx 98 730 01 16 36 -15 -7
  601 sprites/standard_trailers/medium_sled.pcx 146 730 09 20 26 -9 -7
  602 sprites/standard_trailers/medium_sled.pcx 178 730 01 24 12 -9 -16
  603 sprites/standard_trailers/medium_sled.pcx 210 730 09 20 26 -17 -7
  604 sprites/standard_trailers/medium_sled.pcx 242 730 01 16 36 -19 -8
  605 sprites/standard_trailers/medium_sled.pcx 290 730 09 20 26 -13 -10
  // Standard bulldozer flat sled - steel, loading  
  606 sprites/standard_trailers/medium_sled.pcx 34 970 01 24 12 -3 -10
  607 sprites/standard_trailers/medium_sled.pcx 66 970 09 20 26 -11 -9
  608 sprites/standard_trailers/medium_sled.pcx 98 970 01 16 36 -15 -7
  609 sprites/standard_trailers/medium_sled.pcx 146 970 09 20 26 -9 -7
  610 sprites/standard_trailers/medium_sled.pcx 178 970 01 24 12 -9 -16
  611 sprites/standard_trailers/medium_sled.pcx 210 970 09 20 26 -17 -7
  612 sprites/standard_trailers/medium_sled.pcx 242 970 01 16 36 -19 -8
  613 sprites/standard_trailers/medium_sled.pcx 290 970 09 20 26 -13 -10
  // Standard bulldozer flat sled - steel, loaded  
  614 sprites/standard_trailers/medium_sled.pcx 34 970 01 24 12 -3 -10
  615 sprites/standard_trailers/medium_sled.pcx 66 970 09 20 26 -11 -9
  616 sprites/standard_trailers/medium_sled.pcx 98 970 01 16 36 -15 -7
  617 sprites/standard_trailers/medium_sled.pcx 146 970 09 20 26 -9 -7
  618 sprites/standard_trailers/medium_sled.pcx 178 970 01 24 12 -9 -16
  619 sprites/standard_trailers/medium_sled.pcx 210 970 09 20 26 -17 -7
  620 sprites/standard_trailers/medium_sled.pcx 242 970 01 16 36 -19 -8
  621 sprites/standard_trailers/medium_sled.pcx 290 970 09 20 26 -13 -10
  // Standard bulldozer flat sled - paper, loading  
  622 sprites/standard_trailers/medium_sled.pcx 34 1130 01 24 12 -3 -10
  623 sprites/standard_trailers/medium_sled.pcx 66 1130 09 20 26 -11 -9
  624 sprites/standard_trailers/medium_sled.pcx 98 1130 01 16 36 -15 -7
  625 sprites/standard_trailers/medium_sled.pcx 146 1130 09 20 26 -9 -7
  626 sprites/standard_trailers/medium_sled.pcx 178 1130 01 24 12 -9 -16
  627 sprites/standard_trailers/medium_sled.pcx 210 1130 09 20 26 -17 -7
  628 sprites/standard_trailers/medium_sled.pcx 242 1130 01 16 36 -19 -8
  629 sprites/standard_trailers/medium_sled.pcx 290 1130 09 20 26 -13 -10
  // Standard bulldozer flat sled - paper, loaded  
  630 sprites/standard_trailers/medium_sled.pcx 34 1130 01 24 12 -3 -10
  631 sprites/standard_trailers/medium_sled.pcx 66 1130 09 20 26 -11 -9
  632 sprites/standard_trailers/medium_sled.pcx 98 1130 01 16 36 -15 -7
  633 sprites/standard_trailers/medium_sled.pcx 146 1130 09 20 26 -9 -7
  634 sprites/standard_trailers/medium_sled.pcx 178 1130 01 24 12 -9 -16
  635 sprites/standard_trailers/medium_sled.pcx 210 1130 09 20 26 -17 -7
  636 sprites/standard_trailers/medium_sled.pcx 242 1130 01 16 36 -19 -8
  637 sprites/standard_trailers/medium_sled.pcx 290 1130 09 20 26 -13 -10
 // Standard bulldozer flat sled - livestock, loading  
  638 sprites/standard_trailers/medium_sled.pcx 34 810 01 24 12 -3 -10
  639 sprites/standard_trailers/medium_sled.pcx 66 810 09 20 26 -11 -9
  640 sprites/standard_trailers/medium_sled.pcx 98 810 01 16 36 -15 -7
  641 sprites/standard_trailers/medium_sled.pcx 146 810 09 20 26 -9 -7
  642 sprites/standard_trailers/medium_sled.pcx 178 810 01 24 12 -9 -16
  643 sprites/standard_trailers/medium_sled.pcx 210 810 09 20 26 -17 -7
  644 sprites/standard_trailers/medium_sled.pcx 242 810 01 16 36 -19 -8
  645 sprites/standard_trailers/medium_sled.pcx 290 810 09 20 26 -13 -10
 // Standard bulldozer flat sled - livestock, loaded
  646 sprites/standard_trailers/medium_sled.pcx 34 810 01 24 12 -3 -10
  647 sprites/standard_trailers/medium_sled.pcx 66 810 09 20 26 -11 -9
  648 sprites/standard_trailers/medium_sled.pcx 98 810 01 16 36 -15 -7
  649 sprites/standard_trailers/medium_sled.pcx 146 810 09 20 26 -9 -7
  650 sprites/standard_trailers/medium_sled.pcx 178 810 01 24 12 -9 -16
  651 sprites/standard_trailers/medium_sled.pcx 210 810 09 20 26 -17 -7
  652 sprites/standard_trailers/medium_sled.pcx 242 810 01 16 36 -19 -8
  653 sprites/standard_trailers/medium_sled.pcx 290 810 09 20 26 -13 -10
 // Standard bulldozer flat sled - copper, loading  
  654 sprites/standard_trailers/medium_sled.pcx 34 1050 01 24 12 -3 -10
  655 sprites/standard_trailers/medium_sled.pcx 66 1050 09 20 26 -11 -9
  656 sprites/standard_trailers/medium_sled.pcx 98 1050 01 16 36 -15 -7
  657 sprites/standard_trailers/medium_sled.pcx 146 1050 09 20 26 -9 -7
  658 sprites/standard_trailers/medium_sled.pcx 178 1050 01 24 12 -9 -16
  659 sprites/standard_trailers/medium_sled.pcx 210 1050 09 20 26 -17 -7
  660 sprites/standard_trailers/medium_sled.pcx 242 1050 01 16 36 -19 -8
  661 sprites/standard_trailers/medium_sled.pcx 290 1050 09 20 26 -13 -10
 // Standard bulldozer flat sled - copper, loaded  
  662 sprites/standard_trailers/medium_sled.pcx 34 1050 01 24 12 -3 -10
  663 sprites/standard_trailers/medium_sled.pcx 66 1050 09 20 26 -11 -9
  664 sprites/standard_trailers/medium_sled.pcx 98 1050 01 16 36 -15 -7
  665 sprites/standard_trailers/medium_sled.pcx 146 1050 09 20 26 -9 -7
  666 sprites/standard_trailers/medium_sled.pcx 178 1050 01 24 12 -9 -16
  667 sprites/standard_trailers/medium_sled.pcx 210 1050 09 20 26 -17 -7
  668 sprites/standard_trailers/medium_sled.pcx 242 1050 01 16 36 -19 -8
  669 sprites/standard_trailers/medium_sled.pcx 290 1050 09 20 26 -13 -10
  670 * 17	 02 01 29  03 03   00 00  01 00  02 00    00 00  01 00  02 00 // steel
  671 * 17	 02 01 2B  03 03   00 00  03 00  04 00    00 00  03 00  04 00 // paper
  672 * 17	 02 01 24  03 03   00 00  05 00  06 00    00 00  05 00  06 00 // livestock
  673 * 17	 02 01 2F  03 03   00 00  07 00  08 00    00 00  07 00  08 00 // copper
  674 * 4	 01 01 03 08  
    // Standard bulldozer stake trailer - empty
  675 sprites/standard_trailers/medium_trailer_4_wheel.pcx 34 610 01 24 12 -3 -10
  676 sprites/standard_trailers/medium_trailer_4_wheel.pcx 66 610 09 20 26 -11 -9
  677 sprites/standard_trailers/medium_trailer_4_wheel.pcx 98 610 01 16 36 -15 -7
  678 sprites/standard_trailers/medium_trailer_4_wheel.pcx 146 610 09 20 26 -9 -7
  679 sprites/standard_trailers/medium_trailer_4_wheel.pcx 178 610 01 24 12 -9 -16
  680 sprites/standard_trailers/medium_trailer_4_wheel.pcx 210 610 09 20 26 -17 -7
  681 sprites/standard_trailers/medium_trailer_4_wheel.pcx 242 610 01 16 36 -19 -8
  682 sprites/standard_trailers/medium_trailer_4_wheel.pcx 290 610 09 20 26 -13 -10
    // Standard bulldozer stake trailer - Wood, loading  
  683 sprites/standard_trailers/medium_trailer_4_wheel.pcx 34 650 01 24 12 -3 -10
  684 sprites/standard_trailers/medium_trailer_4_wheel.pcx 66 650 09 20 26 -11 -9
  685 sprites/standard_trailers/medium_trailer_4_wheel.pcx 98 650 01 16 36 -15 -7
  686 sprites/standard_trailers/medium_trailer_4_wheel.pcx 146 650 09 20 26 -9 -7
  687 sprites/standard_trailers/medium_trailer_4_wheel.pcx 178 650 01 24 12 -9 -16
  688 sprites/standard_trailers/medium_trailer_4_wheel.pcx 210 650 09 20 26 -17 -7
  689 sprites/standard_trailers/medium_trailer_4_wheel.pcx 242 650 01 16 36 -19 -8
  690 sprites/standard_trailers/medium_trailer_4_wheel.pcx 290 650 09 20 26 -13 -10
    // Standard bulldozer stake trailer - Wood, loaded  
  691 sprites/standard_trailers/medium_trailer_4_wheel.pcx 34 690 01 24 12 -3 -10
  692 sprites/standard_trailers/medium_trailer_4_wheel.pcx 66 690 09 20 26 -11 -9
  693 sprites/standard_trailers/medium_trailer_4_wheel.pcx 98 690 01 16 36 -15 -7
  694 sprites/standard_trailers/medium_trailer_4_wheel.pcx 146 690 09 20 26 -9 -7
  695 sprites/standard_trailers/medium_trailer_4_wheel.pcx 178 690 01 24 12 -9 -16
  696 sprites/standard_trailers/medium_trailer_4_wheel.pcx 210 690 09 20 26 -17 -7
  697 sprites/standard_trailers/medium_trailer_4_wheel.pcx 242 690 01 16 36 -19 -8
  698 sprites/standard_trailers/medium_trailer_4_wheel.pcx 290 690 09 20 26 -13 -10
  699 * 17	 02 01 07  03 03   00 00  01 00  02 00    00 00  01 00  02 00 // wood
  700 * 4	 01 01 03 08  
    // Standard bulldozer stake sled - empty
  701 sprites/standard_trailers/medium_sled.pcx 34 610 01 24 12 -3 -10
  702 sprites/standard_trailers/medium_sled.pcx 66 610 09 20 26 -11 -9
  703 sprites/standard_trailers/medium_sled.pcx 98 610 01 16 36 -15 -7
  704 sprites/standard_trailers/medium_sled.pcx 146 610 09 20 26 -9 -7
  705 sprites/standard_trailers/medium_sled.pcx 178 610 01 24 12 -9 -16
  706 sprites/standard_trailers/medium_sled.pcx 210 610 09 20 26 -17 -7
  707 sprites/standard_trailers/medium_sled.pcx 242 610 01 16 36 -19 -8
  708 sprites/standard_trailers/medium_sled.pcx 290 610 09 20 26 -13 -10
    // Standard bulldozer stake sled - Wood, loading  
  709 sprites/standard_trailers/medium_sled.pcx 34 650 01 24 12 -3 -10
  710 sprites/standard_trailers/medium_sled.pcx 66 650 09 20 26 -11 -9
  711 sprites/standard_trailers/medium_sled.pcx 98 650 01 16 36 -15 -7
  712 sprites/standard_trailers/medium_sled.pcx 146 650 09 20 26 -9 -7
  713 sprites/standard_trailers/medium_sled.pcx 178 650 01 24 12 -9 -16
  714 sprites/standard_trailers/medium_sled.pcx 210 650 09 20 26 -17 -7
  715 sprites/standard_trailers/medium_sled.pcx 242 650 01 16 36 -19 -8
  716 sprites/standard_trailers/medium_sled.pcx 290 650 09 20 26 -13 -10
    // Standard bulldozer stake sled - Wood, loaded  
  717 sprites/standard_trailers/medium_sled.pcx 34 690 01 24 12 -3 -10
  718 sprites/standard_trailers/medium_sled.pcx 66 690 09 20 26 -11 -9
  719 sprites/standard_trailers/medium_sled.pcx 98 690 01 16 36 -15 -7
  720 sprites/standard_trailers/medium_sled.pcx 146 690 09 20 26 -9 -7
  721 sprites/standard_trailers/medium_sled.pcx 178 690 01 24 12 -9 -16
  722 sprites/standard_trailers/medium_sled.pcx 210 690 09 20 26 -17 -7
  723 sprites/standard_trailers/medium_sled.pcx 242 690 01 16 36 -19 -8
  724 sprites/standard_trailers/medium_sled.pcx 290 690 09 20 26 -13 -10
  725 * 17	 02 01 27  03 03   00 00  01 00  02 00    00 00  01 00  02 00 // wood
    // Standard bulldozer tank trailer
  726 * 4	 01 01 01 08
  727 sprites/standard_trailers/medium_trailer_4_wheel.pcx 34 10 01 24 12 -3 -10
  728 sprites/standard_trailers/medium_trailer_4_wheel.pcx 66 10 09 20 26 -11 -9
  729 sprites/standard_trailers/medium_trailer_4_wheel.pcx 98 10 01 16 36 -15 -7
  730 sprites/standard_trailers/medium_trailer_4_wheel.pcx 146 10 09 20 26 -9 -7
  731 sprites/standard_trailers/medium_trailer_4_wheel.pcx 178 10 01 24 12 -9 -16
  732 sprites/standard_trailers/medium_trailer_4_wheel.pcx 210 10 09 20 26 -17 -7
  733 sprites/standard_trailers/medium_trailer_4_wheel.pcx 242 10 01 16 36 -19 -8
  734 sprites/standard_trailers/medium_trailer_4_wheel.pcx 290 10 09 20 26 -13 -10
  735 * 9	 02 01 03   01 01    00 00    00 00 // tank trailer
    // Standard bulldozer tank trailer
  736 * 4	 01 01 01 08
  737 sprites/standard_trailers/medium_sled.pcx 34 10 01 24 12 -3 -10
  738 sprites/standard_trailers/medium_sled.pcx 66 10 09 20 26 -11 -9
  739 sprites/standard_trailers/medium_sled.pcx 98 10 01 16 36 -15 -7
  740 sprites/standard_trailers/medium_sled.pcx 146 10 09 20 26 -9 -7
  741 sprites/standard_trailers/medium_sled.pcx 178 10 01 24 12 -9 -16
  742 sprites/standard_trailers/medium_sled.pcx 210 10 09 20 26 -17 -7
  743 sprites/standard_trailers/medium_sled.pcx 242 10 01 16 36 -19 -8
  744 sprites/standard_trailers/medium_sled.pcx 290 10 09 20 26 -13 -10
  745 * 9	 02 01 23   01 01    00 00    00 00 // tank sled
  // Rough order of business here:
      // set length and refit texts
      // choose sleds or trailers action 2 branch
      // find cargo of vehicle, choose action 2 matching
  746 * 66	 02 01 CE  // choose sled sprites according to cargo
                 81 47 00 FF // var 47 in format ccccwwtt where I want tt 
                 0E // range
                  21 00 01 01 // coal
                  26 00 06 06 // grain 
                  26 00 1B 1B // wheat 
                  26 00 1D 1D // maize 
                  28 00 08 08 // iron ore
                  23 00 03 03 // oil
                  23 00 0F 0F // water
                  23 00 10 10 // rubber
                  24 00 04 04 // livestock                  
                  29 00 09 09 // steel                  
                  27 00 07 07 // wood  
                  2B 00 0B 0B // paper
                  2E 00 0E 0E // copper ore
                  27 00 1E 1E // tropical wood
                 25 00 // default 
  747 * 66	 02 01 CD  // choose wheeled trailer sprites according to cargo slot (in cargo translation tt)
                 81 47 00 FF // var 47 in format ccccwwtt where I want tt 
                 0E // range
                  01 00 01 01 // coal
                  06 00 06 06 // grain 
                  06 00 1B 1B // wheat 
                  06 00 1D 1D // maize 
                  08 00 08 08 // iron ore
                  03 00 03 03 // oil
                  03 00 0F 0F // water
                  03 00 10 10 // rubber
                  04 00 04 04 // livestock                  
                  09 00 09 09 // steel                  
                  07 00 07 07 // wood  
                  0B 00 0B 0B // paper
                  0E 00 0E 0E // copper ore
                  07 00 1E 1E // tropical wood
                 05 00 // default 
  748 * 18	 02 01 CC  // set refit text strings
                 81 F2 00 FF //
                 02 // range
                  00 80 00 00 
                  01 80 01 01 
                 FF 80 // end callback chain
  749 * 18	 02 01 CB  // choose sprites according to refit
                 81 F2 00 FF //
                 02 // range
                  CD 00 00 00 // wheeled trailers 
                  CE 00 01 01 // sleds
                 05 00 // default 
  750 * 18	 02 01 C0  // handle callbacks
                 81 0C 00 FF //
                 02 // range
                  02 80 11 11 // vehicle length CB
                  CC 00 19 19 // text suffix CB 
                 CB 00 // graphics
  751 * 7	 03 01 01 6E // Action 3
    00 // Number of different cargo types to support (!! Hex) 
	  C0 00 // default
  752 * 7	 03 01 01 6F // Action 3
    00 // Number of different cargo types to support (!! Hex) 
	  C0 00 // default
  753 * 7	 03 01 01 70 // Action 3
    00 // Number of different cargo types to support (!! Hex) 
	  C0 00 // default
  754 * 7	 03 01 01 71 // Action 3
    00 // Number of different cargo types to support (!! Hex) 
	  C0 00 // default
  755 * 7	 03 01 01 72 // Action 3
    00 // Number of different cargo types to support (!! Hex) 
	  C0 00 // default
  756 * 7	 03 01 01 73 // Action 3
    00 // Number of different cargo types to support (!! Hex) 
	  C0 00 // default

   // Large / Very large bulldozer trailer
     // Lower capacity trailers use Large graphics.  Higher capacity use Very Large graphics.
     // Rough order of business here
       // Bulldozer trailers vary capacity depending on date vehicle is built
       // Can't get CB 36 to do that on build, only on refit (oh so close)
       // So instead define multiple vehicles using the same real sprites
       // Only difference is capacity
       // Lead vehicle chooses different trailers depending on date
       // This is inefficient on source code, also on ID use, but we have 255 IDs to play with so should be ok.
     // NOTE: Don't use IDs > 128 for trailers in articulated consists (lead vehicle ID can be > 128)
  757 * 67	 00 01 19 01 7A
    00 00 00  // intro date 
    02 20     // reliability 
    03 11     // vehicle life 
    04 23     // class life 
    06 00     // climate 
    07 05     // load amount 
    08 80     // speed in mph * 3.2
    09 1E     // running cost factor 
    0A 48 4C 00 00 13 14 14 18        // running cost base 
    0E FF     // sprite ID
    0F \b30     // capacity
    10 FF     // cargo type
    11 34     // cost factor
    12 17     // sound effect
    15 20     // speed in mph * 0.8
    16 C0 20 00 68     // Bit mask of cargo types available for refitting
    // flips 1D / 1E values: excludes fruit, grain, wheat, maize; includes Wood, tropical wood
    17 11     // Callback flags bit mask
    1A 00     // Refit cost, using 25% of the purchase price cost base
    1B 00     // Retire vehicle early, this many years before the end of phase 2
    1C 02     // Miscellaneous vehicle flags
    1D 10 00          // Refittable cargo classes
    1E EF 03          // Non-refittable cargo classes
    1F 60 B3 0A 00    // Long format introduction date  
  758 * 67	 00 01 19 01 7B
    00 00 00  // intro date 
    02 20     // reliability 
    03 11     // vehicle life 
    04 23     // class life 
    06 00     // climate 
    07 05     // load amount 
    08 80     // speed in mph * 3.2
    09 1E     // running cost factor 
    0A 48 4C 00 00 13 14 14 18        // running cost base 
    0E FF     // sprite ID
    0F \b36     // capacity
    10 FF     // cargo type
    11 34     // cost factor
    12 17     // sound effect
    15 20     // speed in mph * 0.8
    16 C0 20 00 68     // Bit mask of cargo types available for refitting
    // flips 1D / 1E values: excludes fruit, grain, wheat, maize; includes Wood, tropical wood
    17 11     // Callback flags bit mask
    1A 00     // Refit cost, using 25% of the purchase price cost base
    1B 00     // Retire vehicle early, this many years before the end of phase 2
    1C 02     // Miscellaneous vehicle flags
    1D 10 00          // Refittable cargo classes
    1E EF 03          // Non-refittable cargo classes
    1F 60 B3 0A 00    // Long format introduction date  
  759 * 67	 00 01 19 01 7C
    00 00 00  // intro date 
    02 20     // reliability 
    03 11     // vehicle life 
    04 23     // class life 
    06 00     // climate 
    07 05     // load amount 
    08 80     // speed in mph * 3.2
    09 1E     // running cost factor 
    0A 48 4C 00 00 13 14 14 18        // running cost base 
    0E FF     // sprite ID
    0F \b42     // capacity
    10 FF     // cargo type
    11 34     // cost factor
    12 17     // sound effect
    15 20     // speed in mph * 0.8
    16 C0 20 00 68     // Bit mask of cargo types available for refitting
[...]
  // Rockchuck Peak 95t hauler empty
 2523 sprites/mining_trucks/95t_mining_truck.pcx 34 10 01 24 12 -5 -13
 2524 sprites/mining_trucks/95t_mining_truck.pcx 66 10 09 20 26 -15 -8
 2525 sprites/mining_trucks/95t_mining_truck.pcx 98 10 01 16 36 -18 -8
 2526 sprites/mining_trucks/95t_mining_truck.pcx 146 10 09 20 26 -11 -9
 2527 sprites/mining_trucks/95t_mining_truck.pcx 178 10 01 24 12 -5 -13
 2528 sprites/mining_trucks/95t_mining_truck.pcx 210 10 09 20 26 -16 -9
 2529 sprites/mining_trucks/95t_mining_truck.pcx 242 10 01 16 36 -20 -10
 2530 sprites/mining_trucks/95t_mining_truck.pcx 290 10 09 20 26 -10 -11
  // Rockchuck Peak 95t hauler coal
 2531 sprites/mining_trucks/95t_mining_truck_coal.pcx 34 10 01 24 12 -5 -13
 2532 sprites/mining_trucks/95t_mining_truck_coal.pcx 66 10 09 20 26 -15 -8
 2533 sprites/mining_trucks/95t_mining_truck_coal.pcx 98 10 01 16 36 -18 -8
 2534 sprites/mining_trucks/95t_mining_truck_coal.pcx 146 10 09 20 26 -11 -9
 2535 sprites/mining_trucks/95t_mining_truck_coal.pcx 178 10 01 24 12 -5 -13
 2536 sprites/mining_trucks/95t_mining_truck_coal.pcx 210 10 09 20 26 -16 -9
 2537 sprites/mining_trucks/95t_mining_truck_coal.pcx 242 10 01 16 36 -20 -10
 2538 sprites/mining_trucks/95t_mining_truck_coal.pcx 290 10 09 20 26 -10 -11
  // Rockchuck Peak 95t hauler iron
 2539 sprites/mining_trucks/95t_mining_truck_iron.pcx 34 10 01 24 12 -5 -13
 2540 sprites/mining_trucks/95t_mining_truck_iron.pcx 66 10 09 20 26 -15 -8
 2541 sprites/mining_trucks/95t_mining_truck_iron.pcx 98 10 01 16 36 -18 -8
 2542 sprites/mining_trucks/95t_mining_truck_iron.pcx 146 10 09 20 26 -11 -9
 2543 sprites/mining_trucks/95t_mining_truck_iron.pcx 178 10 01 24 12 -5 -13
 2544 sprites/mining_trucks/95t_mining_truck_iron.pcx 210 10 09 20 26 -16 -9
 2545 sprites/mining_trucks/95t_mining_truck_iron.pcx 242 10 01 16 36 -20 -10
 2546 sprites/mining_trucks/95t_mining_truck_iron.pcx 290 10 09 20 26 -10 -11
  // Rockchuck Peak 95t hauler brown
 2547 sprites/mining_trucks/95t_mining_truck_brown.pcx 34 10 01 24 12 -5 -13
 2548 sprites/mining_trucks/95t_mining_truck_brown.pcx 66 10 09 20 26 -15 -8
 2549 sprites/mining_trucks/95t_mining_truck_brown.pcx 98 10 01 16 36 -18 -8
 2550 sprites/mining_trucks/95t_mining_truck_brown.pcx 146 10 09 20 26 -11 -9
 2551 sprites/mining_trucks/95t_mining_truck_brown.pcx 178 10 01 24 12 -5 -13
 2552 sprites/mining_trucks/95t_mining_truck_brown.pcx 210 10 09 20 26 -16 -9
 2553 sprites/mining_trucks/95t_mining_truck_brown.pcx 242 10 01 16 36 -20 -10
 2554 sprites/mining_trucks/95t_mining_truck_brown.pcx 290 10 09 20 26 -10 -11
  // Rockchuck Peak 95t hauler white
 2555 sprites/mining_trucks/95t_mining_truck_white.pcx 34 10 01 24 12 -5 -13
 2556 sprites/mining_trucks/95t_mining_truck_white.pcx 66 10 09 20 26 -15 -8
 2557 sprites/mining_trucks/95t_mining_truck_white.pcx 98 10 01 16 36 -18 -8
 2558 sprites/mining_trucks/95t_mining_truck_white.pcx 146 10 09 20 26 -11 -9
 2559 sprites/mining_trucks/95t_mining_truck_white.pcx 178 10 01 24 12 -5 -13
 2560 sprites/mining_trucks/95t_mining_truck_white.pcx 210 10 09 20 26 -16 -9
 2561 sprites/mining_trucks/95t_mining_truck_white.pcx 242 10 01 16 36 -20 -10
 2562 sprites/mining_trucks/95t_mining_truck_white.pcx 290 10 09 20 26 -10 -11
  // Rockchuck Peak 95t hauler red
 2563 sprites/mining_trucks/95t_mining_truck_red.pcx 34 10 01 24 12 -5 -13
 2564 sprites/mining_trucks/95t_mining_truck_red.pcx 66 10 09 20 26 -15 -8
 2565 sprites/mining_trucks/95t_mining_truck_red.pcx 98 10 01 16 36 -18 -8
 2566 sprites/mining_trucks/95t_mining_truck_red.pcx 146 10 09 20 26 -11 -9
 2567 sprites/mining_trucks/95t_mining_truck_red.pcx 178 10 01 24 12 -5 -13
 2568 sprites/mining_trucks/95t_mining_truck_red.pcx 210 10 09 20 26 -16 -9
 2569 sprites/mining_trucks/95t_mining_truck_red.pcx 242 10 01 16 36 -20 -10
 2570 sprites/mining_trucks/95t_mining_truck_red.pcx 290 10 09 20 26 -10 -11
  // Rockchuck Peak 95t hauler grey 
 2571 sprites/mining_trucks/95t_mining_truck_grey.pcx 34 10 01 24 12 -5 -13
 2572 sprites/mining_trucks/95t_mining_truck_grey.pcx 66 10 09 20 26 -15 -8
 2573 sprites/mining_trucks/95t_mining_truck_grey.pcx 98 10 01 16 36 -18 -8
 2574 sprites/mining_trucks/95t_mining_truck_grey.pcx 146 10 09 20 26 -11 -9
 2575 sprites/mining_trucks/95t_mining_truck_grey.pcx 178 10 01 24 12 -5 -13
 2576 sprites/mining_trucks/95t_mining_truck_grey.pcx 210 10 09 20 26 -16 -9
 2577 sprites/mining_trucks/95t_mining_truck_grey.pcx 242 10 01 16 36 -20 -10
 2578 sprites/mining_trucks/95t_mining_truck_grey.pcx 290 10 09 20 26 -10 -11
 2579 * 13	 02 01 A1 02 02 00 00 01 00 00 00 01 00
 2580 * 13	 02 01 A2 02 02 00 00 02 00 00 00 02 00
 2581 * 13	 02 01 A3 02 02 00 00 03 00 00 00 03 00
 2582 * 13	 02 01 A4 02 02 00 00 04 00 00 00 04 00
 2583 * 13	 02 01 A5 02 02 00 00 05 00 00 00 05 00
 2584 * 13	 02 01 A6 02 02 00 00 06 00 00 00 06 00
 2585 * 4	 01 01 01 04 // depot sprites
 2586 * 1	 00
 2587 * 1	 00
 2588 sprites/mining_trucks/95t_mining_truck.pcx 370 14 01 12 36 -14 -6
 2589 * 1	 00
 2590 * 9	 02 01 AF 01 01 00 00 00 00
 2591 * 25	 03 01 01 D5 // Action 3 
   06 // number of cargo types to support
   01 A1 00
   08 A2 00
   0E A3 00 
   11 A4 00
   17 A5 00
   FF AF 00 // buy menu sprites
   A6 00 // default sprites

  // Camelback Mountain Mining Truck  240t		2001-2050	37mph
 2592 * 67	 00 01 19 01 D6
    00 \w1-1-1920  // intro date
    02 20     // reliability
    03 19     // vehicle life
    04 19     // class life
    06 0F     // climate
    07 05     // load amount
    08 \b119     // speed in mph * 3.2
    09 50     // running cost factor
    0A 48 4C 00 00       // running cost base
    0E FF     // sprite ID
    0F 00     // capacity
    10 FF     // cargo type 
    11 5D     // cost factor
    12 17     // sound effect
    13 \b93     // power in 10 hp
    14 \b176     // weight in 1/4 tons
    15 \b30     // speed in mph * 0.8
    16 40 00 00 28     // Bit mask of cargo types available for refitting
    // flips 1D / 1E values: excludes grain, wheat, maize
    17 12     // Callback flags bit mask
    1A 00     // Refit cost, using 25% of the purchase price cost base
    1B 00     // Retire vehicle early, this many years before the end of phase 2
    1C 02     // Miscellaneous vehicle flags
    1D 10 00          // Refittable cargo classes
    1E EF 03          // Non-refittable cargo classes
    1F 8D 26 0B 00    // Long format introduction date
 2593 * 37	 04 01 7F 01 D6 "Camelback Mountain Mining Truck" 00
 2594 * 43	 04 01 81 01 D4 D0 "Hauls: " 8A "Two 120t belly-dump trailers" 00 // (240t total)
 2595 * 4	 01 01 01 08
  // Kilimanjaro (Articulated) dump truck empty
 2596 sprites/off_highway_trucks/mining_truck_chassis.pcx 34 10 01 24 12 -5 -16
 2597 sprites/off_highway_trucks/mining_truck_chassis.pcx 66 10 09 20 26 -15 -8
 2598 sprites/off_highway_trucks/mining_truck_chassis.pcx 98 10 01 16 36 -18 -10
 2599 sprites/off_highway_trucks/mining_truck_chassis.pcx 146 10 09 20 26 -11 -9
 2600 sprites/off_highway_trucks/mining_truck_chassis.pcx 178 10 01 24 12 -5 -15
 2601 sprites/off_highway_trucks/mining_truck_chassis.pcx 210 10 09 20 26 -16 -9
 2602 sprites/off_highway_trucks/mining_truck_chassis.pcx 242 10 01 16 36 -20 -10
 2603 sprites/off_highway_trucks/mining_truck_chassis.pcx 290 10 09 20 26 -10 -11
 2604 * 9	 02 01 A1 01 01 00 00 00 00 //normal action2 defining graphics with no loading/loaded stages
 2605 * 4	 01 01 01 04
 2606 * 1	 00
 2607 * 1	 00
 2608 sprites/off_highway_trucks/mining_truck_chassis.pcx 370 14 01 12 36 -14 -6
 2609 * 1	 00
 2610 * 9	 02 01 F1 // action2 buy menu sprites 
      01 // number loading states
      01 // number loaded states
      00 00 // loading sprites
      00 00 // loaded sprites
 2611 * 14	 02 01 F0 // varaction 2 handles buy menu callbacks 
                 81 0C 00 FF //check byte value of variable 81 (no bit shift, FF andmask)
                 01 // range
                   D4 80 23 23 // text for vehicle window
                 F1 00 //otherwise go to next action 2 ID 
 2612 * 22	 02 01 B0 //ID B0
               81 10 00 FF //check byte value of variable 10 (no bit shift, FF andmask)
               03 //check one ranges
               07 80 01 01 //give callback result
               05 80 02 02 //give callback result
               07 80 03 03 //give callback result
               FF FF //otherwise end the callback chain
 2613 * 14	 02 01 B6 // provide correct refit/capacity information in buy menu (credits to DJ Nekkid for solution)
               82 40 10 FF // check vehicle length    
               01 // check one range
                 F0 00 00 00 // if length is 0 use purchase menu sprite
               A1 00 // else go to action 2 to apply graphics
 2614 * 18	 02 01 B1 //
               81 0C 00 FF // handle callbacks
               02 // range
                 02 80 11 11 // vehicle length CB
                 B0 00 16 16 // articulated vehicle building instructions
               B6 00 //otherwise go to next action 2 ID 
 2615 * 7	 03 01 01 D6  // Action 3
    00  // Number of different cargo types to support 
    B1 00   // Action 2 ID above  

  // Kilimanjaro Mining Hauler  160t	1200hp	1990-2050	57mph
 2616 * 67	 00 01 19 01 D7
    00 \w1-1-1920  // intro date
    02 20     // reliability
    03 19     // vehicle life
    04 19     // class life
    06 0F     // climate
    07 05     // load amount
    08 \b182     // speed in mph * 3.2
    09 50     // running cost factor
    0A 48 4C 00 00       // running cost base
    0E FF     // sprite ID
    0F \b160     // capacity
    10 FF     // cargo type 
    11 5D     // cost factor
    12 1A     // sound effect
    13 \b120     // power in 10 hp
    14 \b252     // weight in 1/4 tons
    15 \b46     // speed in mph * 0.8
    16 40 00 00 28     // Bit mask of cargo types available for refitting
    // flips 1D / 1E values: excludes grain, wheat, maize
    17 00     // Callback flags bit mask
    1A 00     // Refit cost, using 25% of the purchase price cost base
    1B 00     // Retire vehicle early, this many years before the end of phase 2
    1C 02     // Miscellaneous vehicle flags
    1D 10 00          // Refittable cargo classes
    1E EF 03          // Non-refittable cargo classes
    1F \d726840   // Long format introduction date (dword)
 2617 * 39	 04 01 7F 01 D7 "Kilimanjaro Unitised Mining Truck" 00
 2618 * 4	 01 01 07 08
  // unitised hauler empty
 2619 sprites/mining_trucks/unitised_mining_truck.pcx 34 10 01 24 12 -5 -15
 2620 sprites/mining_trucks/unitised_mining_truck.pcx 66 10 01 22 30 -17 -10
 2621 sprites/mining_trucks/unitised_mining_truck.pcx 98 10 01 16 36 -14 -9
 2622 sprites/mining_trucks/unitised_mining_truck.pcx 146 10 01 22 30 -10 -10
 2623 sprites/mining_trucks/unitised_mining_truck.pcx 178 10 01 24 12 -5 -13
 2624 sprites/mining_trucks/unitised_mining_truck.pcx 210 10 01 22 30 -18 -11
 2625 sprites/mining_trucks/unitised_mining_truck.pcx 242 10 01 16 36 -14 -10
 2626 sprites/mining_trucks/unitised_mining_truck.pcx 290 10 01 22 30 -9 -11
  // unitised hauler coal
 2627 sprites/mining_trucks/unitised_mining_truck_coal.pcx 34 10 01 24 12 -5 -15
 2628 sprites/mining_trucks/unitised_mining_truck_coal.pcx 66 10 01 22 30 -17 -10
 2629 sprites/mining_trucks/unitised_mining_truck_coal.pcx 98 10 01 16 36 -14 -9
 2630 sprites/mining_trucks/unitised_mining_truck_coal.pcx 146 10 01 22 30 -10 -10
 2631 sprites/mining_trucks/unitised_mining_truck_coal.pcx 178 10 01 24 12 -5 -13
 2632 sprites/mining_trucks/unitised_mining_truck_coal.pcx 210 10 01 22 30 -18 -11
 2633 sprites/mining_trucks/unitised_mining_truck_coal.pcx 242 10 01 16 36 -14 -10
 2634 sprites/mining_trucks/unitised_mining_truck_coal.pcx 290 10 01 22 30 -9 -11
  // unitised hauler iron 
 2635 sprites/mining_trucks/unitised_mining_truck_iron.pcx 34 10 01 24 12 -5 -15
 2636 sprites/mining_trucks/unitised_mining_truck_iron.pcx 66 10 01 22 30 -17 -10
 2637 sprites/mining_trucks/unitised_mining_truck_iron.pcx 98 10 01 16 36 -14 -9
 2638 sprites/mining_trucks/unitised_mining_truck_iron.pcx 146 10 01 22 30 -10 -10
 2639 sprites/mining_trucks/unitised_mining_truck_iron.pcx 178 10 01 24 12 -5 -13
 2640 sprites/mining_trucks/unitised_mining_truck_iron.pcx 210 10 01 22 30 -18 -11
 2641 sprites/mining_trucks/unitised_mining_truck_iron.pcx 242 10 01 16 36 -14 -10
 2642 sprites/mining_trucks/unitised_mining_truck_iron.pcx 290 10 01 22 30 -9 -11
  // unitised hauler brown
 2643 sprites/mining_trucks/unitised_mining_truck_brown.pcx 34 10 01 24 12 -5 -15
 2644 sprites/mining_trucks/unitised_mining_truck_brown.pcx 66 10 01 22 30 -17 -10
 2645 sprites/mining_trucks/unitised_mining_truck_brown.pcx 98 10 01 16 36 -14 -9
 2646 sprites/mining_trucks/unitised_mining_truck_brown.pcx 146 10 01 22 30 -10 -10
 2647 sprites/mining_trucks/unitised_mining_truck_brown.pcx 178 10 01 24 12 -5 -13
 2648 sprites/mining_trucks/unitised_mining_truck_brown.pcx 210 10 01 22 30 -18 -11
 2649 sprites/mining_trucks/unitised_mining_truck_brown.pcx 242 10 01 16 36 -14 -10
 2650 sprites/mining_trucks/unitised_mining_truck_brown.pcx 290 10 01 22 30 -9 -11
  // unitised hauler white 
 2651 sprites/mining_trucks/unitised_mining_truck_white.pcx 34 10 01 24 12 -5 -15
 2652 sprites/mining_trucks/unitised_mining_truck_white.pcx 66 10 01 22 30 -17 -10
 2653 sprites/mining_trucks/unitised_mining_truck_white.pcx 98 10 01 16 36 -14 -9
 2654 sprites/mining_trucks/unitised_mining_truck_white.pcx 146 10 01 22 30 -10 -10
 2655 sprites/mining_trucks/unitised_mining_truck_white.pcx 178 10 01 24 12 -5 -13
 2656 sprites/mining_trucks/unitised_mining_truck_white.pcx 210 10 01 22 30 -18 -11
 2657 sprites/mining_trucks/unitised_mining_truck_white.pcx 242 10 01 16 36 -14 -10
 2658 sprites/mining_trucks/unitised_mining_truck_white.pcx 290 10 01 22 30 -9 -11
  // unitised hauler red
 2659 sprites/mining_trucks/unitised_mining_truck_red.pcx 34 10 01 24 12 -5 -15
 2660 sprites/mining_trucks/unitised_mining_truck_red.pcx 66 10 01 22 30 -17 -10
 2661 sprites/mining_trucks/unitised_mining_truck_red.pcx 98 10 01 16 36 -14 -9
 2662 sprites/mining_trucks/unitised_mining_truck_red.pcx 146 10 01 22 30 -10 -10
 2663 sprites/mining_trucks/unitised_mining_truck_red.pcx 178 10 01 24 12 -5 -13
 2664 sprites/mining_trucks/unitised_mining_truck_red.pcx 210 10 01 22 30 -18 -11
 2665 sprites/mining_trucks/unitised_mining_truck_red.pcx 242 10 01 16 36 -14 -10
 2666 sprites/mining_trucks/unitised_mining_truck_red.pcx 290 10 01 22 30 -9 -11
  // unitised hauler grey
 2667 sprites/mining_trucks/unitised_mining_truck_grey.pcx 34 10 01 24 12 -5 -15
 2668 sprites/mining_trucks/unitised_mining_truck_grey.pcx 66 10 01 22 30 -17 -10
 2669 sprites/mining_trucks/unitised_mining_truck_grey.pcx 98 10 01 16 36 -14 -9
 2670 sprites/mining_trucks/unitised_mining_truck_grey.pcx 146 10 01 22 30 -10 -10
 2671 sprites/mining_trucks/unitised_mining_truck_grey.pcx 178 10 01 24 12 -5 -13
 2672 sprites/mining_trucks/unitised_mining_truck_grey.pcx 210 10 01 22 30 -18 -11
 2673 sprites/mining_trucks/unitised_mining_truck_grey.pcx 242 10 01 16 36 -14 -10
 2674 sprites/mining_trucks/unitised_mining_truck_grey.pcx 290 10 01 22 30 -9 -11
 2675 * 13	 02 01 A1 02 02 00 00 01 00 00 00 01 00
 2676 * 13	 02 01 A2 02 02 00 00 02 00 00 00 02 00
 2677 * 13	 02 01 A3 02 02 00 00 03 00 00 00 03 00
 2678 * 13	 02 01 A4 02 02 00 00 04 00 00 00 04 00
 2679 * 13	 02 01 A5 02 02 00 00 05 00 00 00 05 00
 2680 * 13	 02 01 A6 02 02 00 00 06 00 00 00 06 00
 2681 * 4	 01 01 01 04
 2682 * 1	 00
 2683 * 1	 00
 2684 sprites/mining_trucks/unitised_mining_truck.pcx 370 14 01 12 36 -14 -6
 2685 * 1	 00
 2686 * 9	 02 01 AF 01 01 00 00 00 00
 2687 * 25	 03 01 01 D7 // Action 3 
   06 // number of cargo types
   01 A1 00
   08 A2 00
   0E A3 00
   11 A4 00
   17 A5 00
   FF AF 00 // buy menu sprites
   A6 00 // default sprites
  // --------------------------- end of Dump trucks / Mining Haulers --------------------- //

  // --------------------------- Off-Highway Trucks --------------------- //

  // Cascade Off-Highway Truck  90t		1960-1982		30mph
 2688 * 67	 00 01 19 01 23
    00 \w1-1-1920  // intro date
    02 20     // reliability
    03 19     // vehicle life
    04 19     // class life
    06 00     // climate  !! set to 00 to hide this vehicle until finished
    07 05     // load amount
    08 \b96     // speed in mph * 3.2
    09 50     // running cost factor
    0A 48 4C 00 00 13 28 14 C8        // running cost base
    0E FF     // sprite ID
    0F 00     // capacity
    10 FF     // cargo type 
    11 5D     // cost factor
    12 19     // sound effect
    15 \b24     // speed in mph * 0.8
    16 40 00 00 28     // Bit mask of cargo types available for refitting
    // flips 1D / 1E values: excludes grain, wheat, maize
    17 16     // Callback flags bit mask
    1A 00     // Refit cost, using 25% of the purchase price cost base
    1B 00     // Retire vehicle early, this many years before the end of phase 2
    1C 02     // Miscellaneous vehicle flags
    1D 10 00          // Refittable cargo classes
    1E EF 03          // Non-refittable cargo classes
    1F 72 EC 0A 00    // Long format introduction date
 2689 * 31	 04 01 7F 01 23 "Cascade Off-Highway Truck" 00
 2690 * 4	 01 01 01 08
  // Cascade off-highway truck empty
 2691 sprites/off_highway_trucks/1960_truck_3_axle.pcx 34 10 01 24 12 -5 -18
 2692 sprites/off_highway_trucks/1960_truck_3_axle.pcx 66 10 09 20 26 -17 -8
 2693 sprites/off_highway_trucks/1960_truck_3_axle.pcx 98 10 01 16 36 -10 -10
 2694 sprites/off_highway_trucks/1960_truck_3_axle.pcx 146 10 09 20 26 -11 -9
 2695 sprites/off_highway_trucks/1960_truck_3_axle.pcx 178 10 01 24 12 -5 -16
 2696 sprites/off_highway_trucks/1960_truck_3_axle.pcx 210 10 09 20 26 -16 -9
 2697 sprites/off_highway_trucks/1960_truck_3_axle.pcx 242 10 01 16 36 -18 -10
 2698 sprites/off_highway_trucks/1960_truck_3_axle.pcx 290 10 09 20 26 -8 -11
 2699 * 9	 02 01 A1 01 01 00 00 00 00 //normal action2 defining graphics with no loading/loaded stages
 2700 * 4	 01 01 01 04
 2701 * 1	 00
 2702 * 1	 00
 2703 sprites/off_highway_trucks/1960_truck_3_axle.pcx 242 10 01 16 36 -18 -8
 2704 * 1	 00
 2705 * 14	 02 01 B0 //ID B0
               81 10 00 FF //check byte value of variable 10 (no bit shift, FF andmask)
               01 //check one ranges
               06 80 01 01 //give callback result
               FF FF //otherwise end the callback chain
 2706 * 14	 02 01 B1 //ID B1
               81 0C 00 FF //check byte value of variable 81 (no bit shift, FF andmask)
               01 //check one range
               B0 00 16 16 //go to ID B0 for value 16 (ie. go to the articulated vehicle building instructions)
               A1 00 //otherwise go to ID A1 (ie. apply vehicle graphics)
 2707 * 7	 03   // Action 3
    01  // RV 
    01  // Number of vehicles this action associate graphics with 
    23  // Vehicle ID
    00  // Number of different cargo types to support  
    B1 00   // Action 2 ID above  
// --------------------------- end of Off-Highway Trucks --------------------- //
//!!Warning (97): Set 00 defined by the previous Action 1 (sprite 2700) has not been used.
//!!For feature 1 the following cargoIDs have not been used since their most recent definition:
//!!06 (last defined at sprite 2041)
//!!0C (last defined at sprite 407)
//!!0D (last defined at sprite 408)
//!!0F (last defined at sprite 596)
//!!17 (last defined at sprite 2043)
//!!18 (last defined at sprite 244)
//!!19 (last defined at sprite 245)
//!!26 (last defined at sprite 2152)
//!!2C (last defined at sprite 518)
//!!2D (last defined at sprite 519)
//!!2F (last defined at sprite 673)
//!!37 (last defined at sprite 2154)
