// Automatically generated by GRFCODEC. Do not modify!
// (Info version 7)
// Format: spritenum pcxfile xpos ypos compression ysize xsize xrel yrel
    0 * 4	 65 09 00 00
    1 * 149	 08 06 "AP" 12 01 "HEQS (Preview) v0.4c" 00 "Heavy equipment "
	 "(Preview) v0.4c in dual company "
	 "colours. Brought to you by"
	 "andythenorth and Richard Wheeler (Zephyris)"
	 "2008" 00

    2 * 134	 00 08 01 20 00 09 // Cargo translation table
      "PASS" "COAL" "MAIL" "OIL_"     // 00 - 03, 01 - 08
      "LVST" "GOOD" "GRAI" "WOOD"     // 04 - 07, 10 - 80
      "IORE" "STEL" "VALU" "PAPR"     // 08 - 0B, 01^ - 08^
      "FOOD" "FRUT" "CORE" "WATR"     // 0C - 0F, 10^ - 80^
      "RUBR" "___A" "___B" "___C"     // 10 - 13, 01^^ - 08^^
      "___D" "___E" "___F" "___G"     // 14 - 17, 10^^ - 80^^
      "___H" "___I" "___J" "WHEA"     // 18 - 1B, 01^^^ - 08^^^
      "GOLD" "MAIZ" "TWOD" "DIAM"     // 1C - 1F, 10^^^ - 80^^^

   // ----------- Drawbars for Trailers -------------//
   // Smaller Drawbar
    3 * 67	 00 01 19 01 04 // Action 0
      00 00 00  // intro date
      02 20     // reliability
      03 19     // vehicle life
      04 23     // class life
      06 00     // climate
      07 05     // load amount
      08 E0     // speed in mph * 3.2
      09 08     // running cost factor
      0A 48 4C 00 00 13 00 14 20 // running cost base
      0E FF     // sprite ID
      0F 00     // capacity
      10 FF     // cargo type
      11 00     // cost factor
      12 00     // sound effect
      15 38     // speed in mph * 0.8
      16 00 00 00 00    // Bit mask of cargo types available for refitting
      17 02     // Callback flags bit mask
      1A 00     // Refit cost, using 25% of the purchase price cost base
      1B 00     // Retire vehicle early, this many years before the end of phase 2
      1C 02     // Miscellaneous vehicle flags     
      1D FF 03     // Refittable cargo classes 
      1E 01 00     // Non-refittable cargo classes
      1F 60 B3 0A 00   // Long format introduction date     
    4 * 36	 04 01 7F 01 04 "[Smaller Drawbar for Trailers]" 00
    5 * 4	 01 01 01 08
    6 Y:\Documents\OTTD graphics\HEQS_build\Full HEQS\sprites/drawbar.pcx 34 10 01 24 12 -5 -16
    7 Y:\Documents\OTTD graphics\HEQS_build\Full HEQS\sprites/drawbar.pcx 66 10 09 20 26 -12 -11
    8 Y:\Documents\OTTD graphics\HEQS_build\Full HEQS\sprites/drawbar.pcx 98 10 01 16 36 -18 -8
    9 Y:\Documents\OTTD graphics\HEQS_build\Full HEQS\sprites/drawbar.pcx 146 10 09 20 26 -4 -5
   10 Y:\Documents\OTTD graphics\HEQS_build\Full HEQS\sprites/drawbar.pcx 178 10 01 24 12 -8 -8
   11 Y:\Documents\OTTD graphics\HEQS_build\Full HEQS\sprites/drawbar.pcx 210 10 09 20 26 -26 -4
   12 Y:\Documents\OTTD graphics\HEQS_build\Full HEQS\sprites/drawbar.pcx 242 10 01 16 36 -28 -9
   13 Y:\Documents\OTTD graphics\HEQS_build\Full HEQS\sprites/drawbar.pcx 290 10 09 20 26 -16 -15
   14 * 9	 02 01 BB   01 01   00 00    00 00
   15 * 14	 02 01 AA  // handle callbacks
                 81 0C 00 FF // check variable 0C
                 01 // range
                  05 80 11 11 // vehicle length callback
                 BB 00
   16 * 7	 03 01 01 04 // Action 3
      00  // Number of different cargo types to support  
      AA 00 // default cargo

   // Larger Drawbar
   17 * 67	 00 01 19 01 05 // Action 0
      00 00 00  // intro date
      02 20     // reliability
      03 19     // vehicle life
      04 23     // class life
      06 00     // climate
      07 05     // load amount
      08 E0     // speed in mph * 3.2
      09 08     // running cost factor
      0A 48 4C 00 00 13 00 14 20 // running cost base
      0E FF     // sprite ID
      0F 00     // capacity
      10 FF     // cargo type
      11 00     // cost factor
      12 00     // sound effect
      15 38     // speed in mph * 0.8
      16 00 00 00 00    // Bit mask of cargo types available for refitting
      17 02     // Callback flags bit mask
      1A 00     // Refit cost, using 25% of the purchase price cost base
      1B 00     // Retire vehicle early, this many years before the end of phase 2
      1C 02     // Miscellaneous vehicle flags     
      1D FF 03     // Refittable cargo classes 
      1E 01 00     // Non-refittable cargo classes
      1F 60 B3 0A 00   // Long format introduction date     
   18 * 28	 04 01 7F 01 05 "[Drawbar for Trailers]" 00
   19 * 4	 01 01 01 08
   20 Y:\Documents\OTTD graphics\HEQS_build\Full HEQS\sprites/drawbar.pcx 34 10 01 24 12 -5 -16
   21 Y:\Documents\OTTD graphics\HEQS_build\Full HEQS\sprites/drawbar.pcx 66 10 09 20 26 -12 -11
   22 Y:\Documents\OTTD graphics\HEQS_build\Full HEQS\sprites/drawbar.pcx 98 10 01 16 36 -18 -8
   23 Y:\Documents\OTTD graphics\HEQS_build\Full HEQS\sprites/drawbar.pcx 146 10 09 20 26 -4 -5
   24 Y:\Documents\OTTD graphics\HEQS_build\Full HEQS\sprites/drawbar.pcx 178 10 01 24 12 -8 -8
   25 Y:\Documents\OTTD graphics\HEQS_build\Full HEQS\sprites/drawbar.pcx 210 10 09 20 26 -26 -4
   26 Y:\Documents\OTTD graphics\HEQS_build\Full HEQS\sprites/drawbar.pcx 242 10 01 16 36 -22 -8
   27 Y:\Documents\OTTD graphics\HEQS_build\Full HEQS\sprites/drawbar.pcx 290 10 09 20 26 -10 -10
   28 * 9	 02 01 BB   01 01   00 00    00 00
   29 * 14	 02 01 AA  // handle callbacks
                 81 0C 00 FF // check variable 0C
                 01 // range
                  04 80 11 11 // vehicle length callback
                 BB 00
   30 * 7	 03 01 01 05 // Action 3
      00  // Number of different cargo types to support  
      AA 00 // default cargo

   // ----------------- end trailer drawbars -------------------//


    // ------------ Medium Trailers ------------------ //

   // Medium Trailers

   31 * 67	 00 01 19 01 00
      00 00 00  // intro date
      02 20     // reliability
      03 19     // vehicle life
      04 23     // class life
      06 00     // climate
      07 05     // load amount
      08 E0     // speed in mph * 3.2
      09 08     // running cost factor
      0A 48 4C 00 00 13 00 14 20    // running cost base
      0E FF     // sprite ID
      0F \b19     // capacity
      10 06     // cargo type
      11 00     // cost factor
      12 00     // sound effect
      15 38     // speed in mph * 0.8
      16 00 00 00 00    // Bit mask of cargo types available for refitting
      17 30     // Callback flags bit mask
      1A 00     // Refit cost, using 25% of the purchase price cost base
      1B 00     // Retire vehicle early, this many years before the end of phase 2
      1C 02     // Miscellaneous vehicle flags 
      1D FF 03      // Refittable cargo classes
      1E 01 00      // Non-refittable cargo classes
      1F 60 B3 0A 00    // Long format introduction date     
   32 * 30	 04 01 7F 01 00 "[Generic Medium Trailer]" 00
// define additional text suffixes
   33 * 28	 04 00 81 02 00 D0
            		" (refit 1)" 00	//
               	" (refit 2)" 00	//
   // Medium Goods Trailer
   34 * 4	 01 01 01 08
   // Medium box trailer
   35 Y:\Documents\OTTD graphics\HEQS_build\Full HEQS\sprites\standard_trailers/medium_trailer_tandem.pcx 34 570 01 24 12 -3 -10
   36 Y:\Documents\OTTD graphics\HEQS_build\Full HEQS\sprites\standard_trailers/medium_trailer_tandem.pcx 66 570 01 20 26 -11 -9
   37 Y:\Documents\OTTD graphics\HEQS_build\Full HEQS\sprites\standard_trailers/medium_trailer_tandem.pcx 98 570 01 16 36 -14 -6
   38 Y:\Documents\OTTD graphics\HEQS_build\Full HEQS\sprites\standard_trailers/medium_trailer_tandem.pcx 146 570 01 20 26 -9 -7
   39 Y:\Documents\OTTD graphics\HEQS_build\Full HEQS\sprites\standard_trailers/medium_trailer_tandem.pcx 178 570 01 24 12 -9 -16
   40 Y:\Documents\OTTD graphics\HEQS_build\Full HEQS\sprites\standard_trailers/medium_trailer_tandem.pcx 210 570 01 20 26 -17 -7
   41 Y:\Documents\OTTD graphics\HEQS_build\Full HEQS\sprites\standard_trailers/medium_trailer_tandem.pcx 242 570 01 16 36 -30 -8
   42 Y:\Documents\OTTD graphics\HEQS_build\Full HEQS\sprites\standard_trailers/medium_trailer_tandem.pcx 290 570 01 20 26 -13 -10
   43 * 9	 02 01 05   01 01   00 00    00 00 // box
   // Medium end dump trailer - empty
   44 * 4	 01 01 0D 08
   45 Y:\Documents\OTTD graphics\HEQS_build\Full HEQS\sprites\standard_trailers/medium_trailer_tandem.pcx 34 50 01 24 12 -3 -10
   46 Y:\Documents\OTTD graphics\HEQS_build\Full HEQS\sprites\standard_trailers/medium_trailer_tandem.pcx 66 50 09 20 26 -11 -9
   47 Y:\Documents\OTTD graphics\HEQS_build\Full HEQS\sprites\standard_trailers/medium_trailer_tandem.pcx 98 50 01 16 36 -14 -6
   48 Y:\Documents\OTTD graphics\HEQS_build\Full HEQS\sprites\standard_trailers/medium_trailer_tandem.pcx 146 50 09 20 26 -9 -7
   49 Y:\Documents\OTTD graphics\HEQS_build\Full HEQS\sprites\standard_trailers/medium_trailer_tandem.pcx 178 50 01 24 12 -9 -16
   50 Y:\Documents\OTTD graphics\HEQS_build\Full HEQS\sprites\standard_trailers/medium_trailer_tandem.pcx 210 50 09 20 26 -17 -7
   51 Y:\Documents\OTTD graphics\HEQS_build\Full HEQS\sprites\standard_trailers/medium_trailer_tandem.pcx 242 50 01 16 36 -30 -8
   52 Y:\Documents\OTTD graphics\HEQS_build\Full HEQS\sprites\standard_trailers/medium_trailer_tandem.pcx 290 50 09 20 26 -13 -10
   // Medium end dump - iron ore, loading  !! this isn't iron ore??
   53 Y:\Documents\OTTD graphics\HEQS_build\Full HEQS\sprites\standard_trailers/medium_trailer_tandem.pcx 34 490 01 24 12 -3 -10
   54 Y:\Documents\OTTD graphics\HEQS_build\Full HEQS\sprites\standard_trailers/medium_trailer_tandem.pcx 66 490 09 20 20 -11 -9
   55 Y:\Documents\OTTD graphics\HEQS_build\Full HEQS\sprites\standard_trailers/medium_trailer_tandem.pcx 98 490 01 16 36 -14 -6
   56 Y:\Documents\OTTD graphics\HEQS_build\Full HEQS\sprites\standard_trailers/medium_trailer_tandem.pcx 146 490 09 20 26 -9 -7
   57 Y:\Documents\OTTD graphics\HEQS_build\Full HEQS\sprites\standard_trailers/medium_trailer_tandem.pcx 178 490 01 24 12 -9 -16
   58 Y:\Documents\OTTD graphics\HEQS_build\Full HEQS\sprites\standard_trailers/medium_trailer_tandem.pcx 210 490 09 20 26 -17 -7
   59 Y:\Documents\OTTD graphics\HEQS_build\Full HEQS\sprites\standard_trailers/medium_trailer_tandem.pcx 242 490 01 16 36 -30 -8
   60 Y:\Documents\OTTD graphics\HEQS_build\Full HEQS\sprites\standard_trailers/medium_trailer_tandem.pcx 290 490 09 20 26 -13 -10
   // Medium end dump - iron ore, loaded  !! this isn't iron ore??
   61 Y:\Documents\OTTD graphics\HEQS_build\Full HEQS\sprites\standard_trailers/medium_trailer_tandem.pcx 34 530 01 24 12 -3 -10
   62 Y:\Documents\OTTD graphics\HEQS_build\Full HEQS\sprites\standard_trailers/medium_trailer_tandem.pcx 66 530 09 20 20 -11 -9
   63 Y:\Documents\OTTD graphics\HEQS_build\Full HEQS\sprites\standard_trailers/medium_trailer_tandem.pcx 98 530 01 16 36 -14 -6
   64 Y:\Documents\OTTD graphics\HEQS_build\Full HEQS\sprites\standard_trailers/medium_trailer_tandem.pcx 146 530 09 20 26 -9 -7
   65 Y:\Documents\OTTD graphics\HEQS_build\Full HEQS\sprites\standard_trailers/medium_trailer_tandem.pcx 178 530 01 24 12 -9 -16
   66 Y:\Documents\OTTD graphics\HEQS_build\Full HEQS\sprites\standard_trailers/medium_trailer_tandem.pcx 210 530 09 20 26 -17 -7
   67 Y:\Documents\OTTD graphics\HEQS_build\Full HEQS\sprites\standard_trailers/medium_trailer_tandem.pcx 242 530 01 16 36 -30 -8
   68 Y:\Documents\OTTD graphics\HEQS_build\Full HEQS\sprites\standard_trailers/medium_trailer_tandem.pcx 290 530 09 20 26 -13 -10
   // Medium end dump - coal, loading
   69 Y:\Documents\OTTD graphics\HEQS_build\Full HEQS\sprites\standard_trailers/medium_trailer_tandem.pcx 34 170 01 24 12 -3 -10
   70 Y:\Documents\OTTD graphics\HEQS_build\Full HEQS\sprites\standard_trailers/medium_trailer_tandem.pcx 66 170 09 20 26 -11 -9
   71 Y:\Documents\OTTD graphics\HEQS_build\Full HEQS\sprites\standard_trailers/medium_trailer_tandem.pcx 98 170 01 16 36 -14 -6
   72 Y:\Documents\OTTD graphics\HEQS_build\Full HEQS\sprites\standard_trailers/medium_trailer_tandem.pcx 146 170 09 20 26 -9 -7
   73 Y:\Documents\OTTD graphics\HEQS_build\Full HEQS\sprites\standard_trailers/medium_trailer_tandem.pcx 178 170 01 24 12 -9 -16
   74 Y:\Documents\OTTD graphics\HEQS_build\Full HEQS\sprites\standard_trailers/medium_trailer_tandem.pcx 210 170 09 20 26 -17 -7
   75 Y:\Documents\OTTD graphics\HEQS_build\Full HEQS\sprites\standard_trailers/medium_trailer_tandem.pcx 242 170 01 16 36 -30 -8
   76 Y:\Documents\OTTD graphics\HEQS_build\Full HEQS\sprites\standard_trailers/medium_trailer_tandem.pcx 290 170 09 20 26 -13 -10
   // Medium end dump - coal, loaded
   77 Y:\Documents\OTTD graphics\HEQS_build\Full HEQS\sprites\standard_trailers/medium_trailer_tandem.pcx 34 210 01 24 12 -3 -10
   78 Y:\Documents\OTTD graphics\HEQS_build\Full HEQS\sprites\standard_trailers/medium_trailer_tandem.pcx 66 210 09 20 26 -11 -9
   79 Y:\Documents\OTTD graphics\HEQS_build\Full HEQS\sprites\standard_trailers/medium_trailer_tandem.pcx 98 210 01 16 36 -14 -6
   80 Y:\Documents\OTTD graphics\HEQS_build\Full HEQS\sprites\standard_trailers/medium_trailer_tandem.pcx 146 210 09 20 26 -9 -7
   81 Y:\Documents\OTTD graphics\HEQS_build\Full HEQS\sprites\standard_trailers/medium_trailer_tandem.pcx 178 210 01 24 12 -9 -16
   82 Y:\Documents\OTTD graphics\HEQS_build\Full HEQS\sprites\standard_trailers/medium_trailer_tandem.pcx 210 210 09 20 26 -17 -7
   83 Y:\Documents\OTTD graphics\HEQS_build\Full HEQS\sprites\standard_trailers/medium_trailer_tandem.pcx 242 210 01 16 36 -30 -8
   84 Y:\Documents\OTTD graphics\HEQS_build\Full HEQS\sprites\standard_trailers/medium_trailer_tandem.pcx 290 210 09 20 26 -13 -10
   // Medium end dump - grain, loading
   85 Y:\Documents\OTTD graphics\HEQS_build\Full HEQS\sprites\standard_trailers/medium_trailer_tandem.pcx 34 250 01 24 12 -3 -10
   86 Y:\Documents\OTTD graphics\HEQS_build\Full HEQS\sprites\standard_trailers/medium_trailer_tandem.pcx 66 250 09 20 26 -11 -9
   87 Y:\Documents\OTTD graphics\HEQS_build\Full HEQS\sprites\standard_trailers/medium_trailer_tandem.pcx 98 250 01 16 36 -14 -6
   88 Y:\Documents\OTTD graphics\HEQS_build\Full HEQS\sprites\standard_trailers/medium_trailer_tandem.pcx 146 250 09 20 26 -9 -7
   89 Y:\Documents\OTTD graphics\HEQS_build\Full HEQS\sprites\standard_trailers/medium_trailer_tandem.pcx 178 250 01 24 12 -9 -16
   90 Y:\Documents\OTTD graphics\HEQS_build\Full HEQS\sprites\standard_trailers/medium_trailer_tandem.pcx 210 250 09 20 26 -17 -7
   91 Y:\Documents\OTTD graphics\HEQS_build\Full HEQS\sprites\standard_trailers/medium_trailer_tandem.pcx 242 250 01 16 36 -30 -8
   92 Y:\Documents\OTTD graphics\HEQS_build\Full HEQS\sprites\standard_trailers/medium_trailer_tandem.pcx 290 250 09 20 26 -13 -10
  // Medium end dump - grain, loaded
   93 Y:\Documents\OTTD graphics\HEQS_build\Full HEQS\sprites\standard_trailers/medium_trailer_tandem.pcx 34 290 01 24 12 -3 -10
   94 Y:\Documents\OTTD graphics\HEQS_build\Full HEQS\sprites\standard_trailers/medium_trailer_tandem.pcx 66 290 09 20 26 -11 -9
   95 Y:\Documents\OTTD graphics\HEQS_build\Full HEQS\sprites\standard_trailers/medium_trailer_tandem.pcx 98 290 01 16 36 -14 -6
   96 Y:\Documents\OTTD graphics\HEQS_build\Full HEQS\sprites\standard_trailers/medium_trailer_tandem.pcx 146 290 09 20 26 -9 -7
   97 Y:\Documents\OTTD graphics\HEQS_build\Full HEQS\sprites\standard_trailers/medium_trailer_tandem.pcx 178 290 01 24 12 -9 -16
   98 Y:\Documents\OTTD graphics\HEQS_build\Full HEQS\sprites\standard_trailers/medium_trailer_tandem.pcx 210 290 09 20 26 -17 -7
   99 Y:\Documents\OTTD graphics\HEQS_build\Full HEQS\sprites\standard_trailers/medium_trailer_tandem.pcx 242 290 01 16 36 -30 -8
  100 Y:\Documents\OTTD graphics\HEQS_build\Full HEQS\sprites\standard_trailers/medium_trailer_tandem.pcx 290 290 09 20 26 -13 -10
  // Medium end dump - clay, loading
  101 Y:\Documents\OTTD graphics\HEQS_build\Full HEQS\sprites\standard_trailers/medium_trailer_tandem.pcx 34 410 01 24 12 -3 -10
  102 Y:\Documents\OTTD graphics\HEQS_build\Full HEQS\sprites\standard_trailers/medium_trailer_tandem.pcx 66 410 09 20 26 -11 -9
  103 Y:\Documents\OTTD graphics\HEQS_build\Full HEQS\sprites\standard_trailers/medium_trailer_tandem.pcx 98 410 01 16 36 -14 -6
  104 Y:\Documents\OTTD graphics\HEQS_build\Full HEQS\sprites\standard_trailers/medium_trailer_tandem.pcx 146 410 09 20 26 -9 -7
  105 Y:\Documents\OTTD graphics\HEQS_build\Full HEQS\sprites\standard_trailers/medium_trailer_tandem.pcx 178 410 01 24 12 -9 -16
  106 Y:\Documents\OTTD graphics\HEQS_build\Full HEQS\sprites\standard_trailers/medium_trailer_tandem.pcx 210 410 09 20 26 -17 -7
  107 Y:\Documents\OTTD graphics\HEQS_build\Full HEQS\sprites\standard_trailers/medium_trailer_tandem.pcx 242 410 01 16 36 -30 -8
  108 Y:\Documents\OTTD graphics\HEQS_build\Full HEQS\sprites\standard_trailers/medium_trailer_tandem.pcx 290 410 09 20 26 -13 -10
  // Medium end dump - clay, loaded
  109 Y:\Documents\OTTD graphics\HEQS_build\Full HEQS\sprites\standard_trailers/medium_trailer_tandem.pcx 34 450 01 24 12 -3 -10
  110 Y:\Documents\OTTD graphics\HEQS_build\Full HEQS\sprites\standard_trailers/medium_trailer_tandem.pcx 66 450 09 20 26 -11 -9
  111 Y:\Documents\OTTD graphics\HEQS_build\Full HEQS\sprites\standard_trailers/medium_trailer_tandem.pcx 98 450 01 16 36 -14 -6
  112 Y:\Documents\OTTD graphics\HEQS_build\Full HEQS\sprites\standard_trailers/medium_trailer_tandem.pcx 146 450 09 20 26 -9 -7
  113 Y:\Documents\OTTD graphics\HEQS_build\Full HEQS\sprites\standard_trailers/medium_trailer_tandem.pcx 178 450 01 24 12 -9 -16
  114 Y:\Documents\OTTD graphics\HEQS_build\Full HEQS\sprites\standard_trailers/medium_trailer_tandem.pcx 210 450 09 20 26 -17 -7
  115 Y:\Documents\OTTD graphics\HEQS_build\Full HEQS\sprites\standard_trailers/medium_trailer_tandem.pcx 242 450 01 16 36 -30 -8
  116 Y:\Documents\OTTD graphics\HEQS_build\Full HEQS\sprites\standard_trailers/medium_trailer_tandem.pcx 290 450 09 20 26 -13 -10
  // Medium end dump - copper ore, loading
  117 Y:\Documents\OTTD graphics\HEQS_build\Full HEQS\sprites\standard_trailers/medium_trailer_tandem.pcx 34 330 01 24 12 -3 -10
  118 Y:\Documents\OTTD graphics\HEQS_build\Full HEQS\sprites\standard_trailers/medium_trailer_tandem.pcx 66 330 09 20 26 -11 -9
  119 Y:\Documents\OTTD graphics\HEQS_build\Full HEQS\sprites\standard_trailers/medium_trailer_tandem.pcx 98 330 01 16 36 -14 -6
  120 Y:\Documents\OTTD graphics\HEQS_build\Full HEQS\sprites\standard_trailers/medium_trailer_tandem.pcx 146 330 09 20 26 -9 -7
  121 Y:\Documents\OTTD graphics\HEQS_build\Full HEQS\sprites\standard_trailers/medium_trailer_tandem.pcx 178 330 01 24 12 -9 -16
  122 Y:\Documents\OTTD graphics\HEQS_build\Full HEQS\sprites\standard_trailers/medium_trailer_tandem.pcx 210 330 09 20 26 -17 -7
  123 Y:\Documents\OTTD graphics\HEQS_build\Full HEQS\sprites\standard_trailers/medium_trailer_tandem.pcx 242 330 01 16 36 -30 -8
  124 Y:\Documents\OTTD graphics\HEQS_build\Full HEQS\sprites\standard_trailers/medium_trailer_tandem.pcx 290 330 09 20 26 -13 -10
  // Medium end dump - copper ore, loaded
  125 Y:\Documents\OTTD graphics\HEQS_build\Full HEQS\sprites\standard_trailers/medium_trailer_tandem.pcx 34 370 01 24 12 -3 -10
  126 Y:\Documents\OTTD graphics\HEQS_build\Full HEQS\sprites\standard_trailers/medium_trailer_tandem.pcx 66 370 09 20 26 -11 -9
  127 Y:\Documents\OTTD graphics\HEQS_build\Full HEQS\sprites\standard_trailers/medium_trailer_tandem.pcx 98 370 01 16 36 -14 -6
  128 Y:\Documents\OTTD graphics\HEQS_build\Full HEQS\sprites\standard_trailers/medium_trailer_tandem.pcx 146 370 09 20 26 -9 -7
  129 Y:\Documents\OTTD graphics\HEQS_build\Full HEQS\sprites\standard_trailers/medium_trailer_tandem.pcx 178 370 01 24 12 -9 -16
  130 Y:\Documents\OTTD graphics\HEQS_build\Full HEQS\sprites\standard_trailers/medium_trailer_tandem.pcx 210 370 09 20 26 -17 -7
  131 Y:\Documents\OTTD graphics\HEQS_build\Full HEQS\sprites\standard_trailers/medium_trailer_tandem.pcx 242 370 01 16 36 -30 -8
  132 Y:\Documents\OTTD graphics\HEQS_build\Full HEQS\sprites\standard_trailers/medium_trailer_tandem.pcx 290 370 09 20 26 -13 -10
  // Medium end dump - gravel, loading
  133 Y:\Documents\OTTD graphics\HEQS_build\Full HEQS\sprites\standard_trailers/medium_trailer_tandem.pcx 34 90 01 24 12 -3 -10
  134 Y:\Documents\OTTD graphics\HEQS_build\Full HEQS\sprites\standard_trailers/medium_trailer_tandem.pcx 66 90 09 20 26 -11 -9
  135 Y:\Documents\OTTD graphics\HEQS_build\Full HEQS\sprites\standard_trailers/medium_trailer_tandem.pcx 98 90 01 16 36 -14 -6
  136 Y:\Documents\OTTD graphics\HEQS_build\Full HEQS\sprites\standard_trailers/medium_trailer_tandem.pcx 146 90 09 20 26 -9 -7
  137 Y:\Documents\OTTD graphics\HEQS_build\Full HEQS\sprites\standard_trailers/medium_trailer_tandem.pcx 178 90 01 24 12 -9 -16
  138 Y:\Documents\OTTD graphics\HEQS_build\Full HEQS\sprites\standard_trailers/medium_trailer_tandem.pcx 210 90 09 20 26 -17 -7
  139 Y:\Documents\OTTD graphics\HEQS_build\Full HEQS\sprites\standard_trailers/medium_trailer_tandem.pcx 242 90 01 16 36 -30 -8
  140 Y:\Documents\OTTD graphics\HEQS_build\Full HEQS\sprites\standard_trailers/medium_trailer_tandem.pcx 290 90 09 20 26 -13 -10
  // Medium end dump - gravel, loaded
  141 Y:\Documents\OTTD graphics\HEQS_build\Full HEQS\sprites\standard_trailers/medium_trailer_tandem.pcx 34 130 01 24 12 -3 -10
  142 Y:\Documents\OTTD graphics\HEQS_build\Full HEQS\sprites\standard_trailers/medium_trailer_tandem.pcx 66 130 09 20 26 -11 -9
  143 Y:\Documents\OTTD graphics\HEQS_build\Full HEQS\sprites\standard_trailers/medium_trailer_tandem.pcx 98 130 01 16 36 -14 -6
  144 Y:\Documents\OTTD graphics\HEQS_build\Full HEQS\sprites\standard_trailers/medium_trailer_tandem.pcx 146 130 09 20 26 -9 -7
  145 Y:\Documents\OTTD graphics\HEQS_build\Full HEQS\sprites\standard_trailers/medium_trailer_tandem.pcx 178 130 01 24 12 -9 -16
  146 Y:\Documents\OTTD graphics\HEQS_build\Full HEQS\sprites\standard_trailers/medium_trailer_tandem.pcx 210 130 09 20 26 -17 -7
  147 Y:\Documents\OTTD graphics\HEQS_build\Full HEQS\sprites\standard_trailers/medium_trailer_tandem.pcx 242 130 01 16 36 -30 -8
  148 Y:\Documents\OTTD graphics\HEQS_build\Full HEQS\sprites\standard_trailers/medium_trailer_tandem.pcx 290 130 09 20 26 -13 -10
  149 * 17	 02 01 08  03 03    00 00  01 00  02 00    00 00  01 00  02 00 // iron ore
  150 * 17	 02 01 01  03 03    00 00  03 00  04 00    00 00  03 00  04 00 // coal
  151 * 17	 02 01 06  03 03    00 00  05 00  06 00    00 00  05 00  06 00 // grain
  152 * 17	 02 01 0E  03 03    00 00  07 00  08 00    00 00  07 00  08 00 // brown 
  153 * 17	 02 01 17  03 03    00 00  09 00  0A 00    00 00  09 00  0A 00 // red
  154 * 17	 02 01 11  03 03    00 00  0B 00  0C 00    00 00  0B 00  0C 00 // grey
  // Medium flat trailer / (also stake trailer ??)
  155 * 4	 01 01 0C 08
  // Medium flat trailer - empty
  156 Y:\Documents\OTTD graphics\HEQS_build\Full HEQS\sprites\standard_trailers/medium_trailer_tandem.pcx 34 730 01 24 12 -3 -10
  157 Y:\Documents\OTTD graphics\HEQS_build\Full HEQS\sprites\standard_trailers/medium_trailer_tandem.pcx 66 730 09 20 26 -11 -9
  158 Y:\Documents\OTTD graphics\HEQS_build\Full HEQS\sprites\standard_trailers/medium_trailer_tandem.pcx 98 730 01 16 36 -14 -6
  159 Y:\Documents\OTTD graphics\HEQS_build\Full HEQS\sprites\standard_trailers/medium_trailer_tandem.pcx 146 730 09 20 26 -9 -7
  160 Y:\Documents\OTTD graphics\HEQS_build\Full HEQS\sprites\standard_trailers/medium_trailer_tandem.pcx 178 730 01 24 12 -9 -16
  161 Y:\Documents\OTTD graphics\HEQS_build\Full HEQS\sprites\standard_trailers/medium_trailer_tandem.pcx 210 730 09 20 26 -17 -7
  162 Y:\Documents\OTTD graphics\HEQS_build\Full HEQS\sprites\standard_trailers/medium_trailer_tandem.pcx 242 730 01 16 36 -30 -8
  163 Y:\Documents\OTTD graphics\HEQS_build\Full HEQS\sprites\standard_trailers/medium_trailer_tandem.pcx 290 730 09 20 26 -13 -10
  // Medium flat trailer - steel, loading  
  164 Y:\Documents\OTTD graphics\HEQS_build\Full HEQS\sprites\standard_trailers/medium_trailer_tandem.pcx 34 970 01 24 12 -3 -10
  165 Y:\Documents\OTTD graphics\HEQS_build\Full HEQS\sprites\standard_trailers/medium_trailer_tandem.pcx 66 970 09 20 26 -11 -9
  166 Y:\Documents\OTTD graphics\HEQS_build\Full HEQS\sprites\standard_trailers/medium_trailer_tandem.pcx 98 970 01 16 36 -14 -6
  167 Y:\Documents\OTTD graphics\HEQS_build\Full HEQS\sprites\standard_trailers/medium_trailer_tandem.pcx 146 970 09 20 26 -9 -7
  168 Y:\Documents\OTTD graphics\HEQS_build\Full HEQS\sprites\standard_trailers/medium_trailer_tandem.pcx 178 970 01 24 12 -9 -16
  169 Y:\Documents\OTTD graphics\HEQS_build\Full HEQS\sprites\standard_trailers/medium_trailer_tandem.pcx 210 970 09 20 26 -17 -7
  170 Y:\Documents\OTTD graphics\HEQS_build\Full HEQS\sprites\standard_trailers/medium_trailer_tandem.pcx 242 970 01 16 36 -30 -8
  171 Y:\Documents\OTTD graphics\HEQS_build\Full HEQS\sprites\standard_trailers/medium_trailer_tandem.pcx 290 970 09 20 26 -13 -10
  // Medium flat trailer - steel, loaded  
  172 Y:\Documents\OTTD graphics\HEQS_build\Full HEQS\sprites\standard_trailers/medium_trailer_tandem.pcx 34 970 01 24 12 -3 -10
  173 Y:\Documents\OTTD graphics\HEQS_build\Full HEQS\sprites\standard_trailers/medium_trailer_tandem.pcx 66 970 09 20 26 -11 -9
  174 Y:\Documents\OTTD graphics\HEQS_build\Full HEQS\sprites\standard_trailers/medium_trailer_tandem.pcx 98 970 01 16 36 -14 -6
  175 Y:\Documents\OTTD graphics\HEQS_build\Full HEQS\sprites\standard_trailers/medium_trailer_tandem.pcx 146 970 09 20 26 -9 -7
  176 Y:\Documents\OTTD graphics\HEQS_build\Full HEQS\sprites\standard_trailers/medium_trailer_tandem.pcx 178 970 01 24 12 -9 -16
  177 Y:\Documents\OTTD graphics\HEQS_build\Full HEQS\sprites\standard_trailers/medium_trailer_tandem.pcx 210 970 09 20 26 -17 -7
  178 Y:\Documents\OTTD graphics\HEQS_build\Full HEQS\sprites\standard_trailers/medium_trailer_tandem.pcx 242 970 01 16 36 -30 -8
  179 Y:\Documents\OTTD graphics\HEQS_build\Full HEQS\sprites\standard_trailers/medium_trailer_tandem.pcx 290 970 09 20 26 -13 -10
  // Medium flat trailer - paper, loading  
  180 Y:\Documents\OTTD graphics\HEQS_build\Full HEQS\sprites\standard_trailers/medium_trailer_tandem.pcx 34 1130 01 24 12 -3 -10
  181 Y:\Documents\OTTD graphics\HEQS_build\Full HEQS\sprites\standard_trailers/medium_trailer_tandem.pcx 66 1130 09 20 26 -11 -9
  182 Y:\Documents\OTTD graphics\HEQS_build\Full HEQS\sprites\standard_trailers/medium_trailer_tandem.pcx 98 1130 01 16 36 -14 -6
  183 Y:\Documents\OTTD graphics\HEQS_build\Full HEQS\sprites\standard_trailers/medium_trailer_tandem.pcx 146 1130 09 20 26 -9 -7
  184 Y:\Documents\OTTD graphics\HEQS_build\Full HEQS\sprites\standard_trailers/medium_trailer_tandem.pcx 178 1130 01 24 12 -9 -16
  185 Y:\Documents\OTTD graphics\HEQS_build\Full HEQS\sprites\standard_trailers/medium_trailer_tandem.pcx 210 1130 09 20 26 -17 -7
  186 Y:\Documents\OTTD graphics\HEQS_build\Full HEQS\sprites\standard_trailers/medium_trailer_tandem.pcx 242 1130 01 16 36 -30 -8
  187 Y:\Documents\OTTD graphics\HEQS_build\Full HEQS\sprites\standard_trailers/medium_trailer_tandem.pcx 290 1130 09 20 26 -13 -10
  // Medium flat trailer - paper, loaded  
  188 Y:\Documents\OTTD graphics\HEQS_build\Full HEQS\sprites\standard_trailers/medium_trailer_tandem.pcx 34 1130 01 24 12 -3 -10
  189 Y:\Documents\OTTD graphics\HEQS_build\Full HEQS\sprites\standard_trailers/medium_trailer_tandem.pcx 66 1130 09 20 26 -11 -9
  190 Y:\Documents\OTTD graphics\HEQS_build\Full HEQS\sprites\standard_trailers/medium_trailer_tandem.pcx 98 1130 01 16 36 -14 -6
  191 Y:\Documents\OTTD graphics\HEQS_build\Full HEQS\sprites\standard_trailers/medium_trailer_tandem.pcx 146 1130 09 20 26 -9 -7
  192 Y:\Documents\OTTD graphics\HEQS_build\Full HEQS\sprites\standard_trailers/medium_trailer_tandem.pcx 178 1130 01 24 12 -9 -16
  193 Y:\Documents\OTTD graphics\HEQS_build\Full HEQS\sprites\standard_trailers/medium_trailer_tandem.pcx 210 1130 09 20 26 -17 -7
  194 Y:\Documents\OTTD graphics\HEQS_build\Full HEQS\sprites\standard_trailers/medium_trailer_tandem.pcx 242 1130 01 16 36 -30 -8
  195 Y:\Documents\OTTD graphics\HEQS_build\Full HEQS\sprites\standard_trailers/medium_trailer_tandem.pcx 290 1130 09 20 26 -13 -10
  // Medium stake trailer - empty
  196 Y:\Documents\OTTD graphics\HEQS_build\Full HEQS\sprites\standard_trailers/medium_trailer_tandem.pcx 34 610 01 24 12 -3 -10
  197 Y:\Documents\OTTD graphics\HEQS_build\Full HEQS\sprites\standard_trailers/medium_trailer_tandem.pcx 66 610 09 20 26 -11 -9
  198 Y:\Documents\OTTD graphics\HEQS_build\Full HEQS\sprites\standard_trailers/medium_trailer_tandem.pcx 98 610 01 16 36 -14 -6
  199 Y:\Documents\OTTD graphics\HEQS_build\Full HEQS\sprites\standard_trailers/medium_trailer_tandem.pcx 146 610 09 20 26 -9 -7
  200 Y:\Documents\OTTD graphics\HEQS_build\Full HEQS\sprites\standard_trailers/medium_trailer_tandem.pcx 178 610 01 24 12 -9 -16
  201 Y:\Documents\OTTD graphics\HEQS_build\Full HEQS\sprites\standard_trailers/medium_trailer_tandem.pcx 210 610 09 20 26 -17 -7
  202 Y:\Documents\OTTD graphics\HEQS_build\Full HEQS\sprites\standard_trailers/medium_trailer_tandem.pcx 242 610 01 16 36 -30 -8
  203 Y:\Documents\OTTD graphics\HEQS_build\Full HEQS\sprites\standard_trailers/medium_trailer_tandem.pcx 290 610 09 20 26 -13 -10
  // Medium stake trailer - Wood, loading  
  204 Y:\Documents\OTTD graphics\HEQS_build\Full HEQS\sprites\standard_trailers/medium_trailer_tandem.pcx 34 650 01 24 12 -3 -10
  205 Y:\Documents\OTTD graphics\HEQS_build\Full HEQS\sprites\standard_trailers/medium_trailer_tandem.pcx 66 650 09 20 26 -11 -9
  206 Y:\Documents\OTTD graphics\HEQS_build\Full HEQS\sprites\standard_trailers/medium_trailer_tandem.pcx 98 650 01 16 36 -14 -6
  207 Y:\Documents\OTTD graphics\HEQS_build\Full HEQS\sprites\standard_trailers/medium_trailer_tandem.pcx 146 650 09 20 26 -9 -7
  208 Y:\Documents\OTTD graphics\HEQS_build\Full HEQS\sprites\standard_trailers/medium_trailer_tandem.pcx 178 650 01 24 12 -9 -16
  209 Y:\Documents\OTTD graphics\HEQS_build\Full HEQS\sprites\standard_trailers/medium_trailer_tandem.pcx 210 650 09 20 26 -17 -7
  210 Y:\Documents\OTTD graphics\HEQS_build\Full HEQS\sprites\standard_trailers/medium_trailer_tandem.pcx 242 650 01 16 36 -30 -8
  211 Y:\Documents\OTTD graphics\HEQS_build\Full HEQS\sprites\standard_trailers/medium_trailer_tandem.pcx 290 650 09 20 26 -13 -10
  // Medium stake trailer - Wood, loaded  
  212 Y:\Documents\OTTD graphics\HEQS_build\Full HEQS\sprites\standard_trailers/medium_trailer_tandem.pcx 34 690 01 24 12 -3 -10
  213 Y:\Documents\OTTD graphics\HEQS_build\Full HEQS\sprites\standard_trailers/medium_trailer_tandem.pcx 66 690 09 20 26 -11 -9
  214 Y:\Documents\OTTD graphics\HEQS_build\Full HEQS\sprites\standard_trailers/medium_trailer_tandem.pcx 98 690 01 16 36 -14 -6
  215 Y:\Documents\OTTD graphics\HEQS_build\Full HEQS\sprites\standard_trailers/medium_trailer_tandem.pcx 146 690 09 20 26 -9 -7
  216 Y:\Documents\OTTD graphics\HEQS_build\Full HEQS\sprites\standard_trailers/medium_trailer_tandem.pcx 178 690 01 24 12 -9 -16
  217 Y:\Documents\OTTD graphics\HEQS_build\Full HEQS\sprites\standard_trailers/medium_trailer_tandem.pcx 210 690 09 20 26 -17 -7
  218 Y:\Documents\OTTD graphics\HEQS_build\Full HEQS\sprites\standard_trailers/medium_trailer_tandem.pcx 242 690 01 16 36 -30 -8
  219 Y:\Documents\OTTD graphics\HEQS_build\Full HEQS\sprites\standard_trailers/medium_trailer_tandem.pcx 290 690 09 20 26 -13 -10
 // Medium flat trailer - livestock, loading  
  220 Y:\Documents\OTTD graphics\HEQS_build\Full HEQS\sprites\standard_trailers/medium_trailer_tandem.pcx 34 810 01 24 12 -3 -10
  221 Y:\Documents\OTTD graphics\HEQS_build\Full HEQS\sprites\standard_trailers/medium_trailer_tandem.pcx 66 810 09 20 26 -11 -9
  222 Y:\Documents\OTTD graphics\HEQS_build\Full HEQS\sprites\standard_trailers/medium_trailer_tandem.pcx 98 810 01 16 36 -14 -6
  223 Y:\Documents\OTTD graphics\HEQS_build\Full HEQS\sprites\standard_trailers/medium_trailer_tandem.pcx 146 810 09 20 26 -9 -7
  224 Y:\Documents\OTTD graphics\HEQS_build\Full HEQS\sprites\standard_trailers/medium_trailer_tandem.pcx 178 810 01 24 12 -9 -16
  225 Y:\Documents\OTTD graphics\HEQS_build\Full HEQS\sprites\standard_trailers/medium_trailer_tandem.pcx 210 810 09 20 26 -17 -7
  226 Y:\Documents\OTTD graphics\HEQS_build\Full HEQS\sprites\standard_trailers/medium_trailer_tandem.pcx 242 810 01 16 36 -30 -8
  227 Y:\Documents\OTTD graphics\HEQS_build\Full HEQS\sprites\standard_trailers/medium_trailer_tandem.pcx 290 810 09 20 26 -13 -10
 // Medium flat trailer - livestock, loaded
  228 Y:\Documents\OTTD graphics\HEQS_build\Full HEQS\sprites\standard_trailers/medium_trailer_tandem.pcx 34 810 01 24 12 -3 -10
  229 Y:\Documents\OTTD graphics\HEQS_build\Full HEQS\sprites\standard_trailers/medium_trailer_tandem.pcx 66 810 09 20 26 -11 -9
  230 Y:\Documents\OTTD graphics\HEQS_build\Full HEQS\sprites\standard_trailers/medium_trailer_tandem.pcx 98 810 01 16 36 -14 -6
  231 Y:\Documents\OTTD graphics\HEQS_build\Full HEQS\sprites\standard_trailers/medium_trailer_tandem.pcx 146 810 09 20 26 -9 -7
  232 Y:\Documents\OTTD graphics\HEQS_build\Full HEQS\sprites\standard_trailers/medium_trailer_tandem.pcx 178 810 01 24 12 -9 -16
  233 Y:\Documents\OTTD graphics\HEQS_build\Full HEQS\sprites\standard_trailers/medium_trailer_tandem.pcx 210 810 09 20 26 -17 -7
  234 Y:\Documents\OTTD graphics\HEQS_build\Full HEQS\sprites\standard_trailers/medium_trailer_tandem.pcx 242 810 01 16 36 -30 -8
  235 Y:\Documents\OTTD graphics\HEQS_build\Full HEQS\sprites\standard_trailers/medium_trailer_tandem.pcx 290 810 09 20 26 -13 -10
 // Medium flat trailer - copper, loading  
  236 Y:\Documents\OTTD graphics\HEQS_build\Full HEQS\sprites\standard_trailers/medium_trailer_tandem.pcx 34 10 01 24 12 -3 -10
  237 Y:\Documents\OTTD graphics\HEQS_build\Full HEQS\sprites\standard_trailers/medium_trailer_tandem.pcx 66 10 09 20 26 -11 -9
  238 Y:\Documents\OTTD graphics\HEQS_build\Full HEQS\sprites\standard_trailers/medium_trailer_tandem.pcx 98 10 01 16 36 -14 -6
  239 Y:\Documents\OTTD graphics\HEQS_build\Full HEQS\sprites\standard_trailers/medium_trailer_tandem.pcx 146 10 09 20 26 -9 -7
  240 Y:\Documents\OTTD graphics\HEQS_build\Full HEQS\sprites\standard_trailers/medium_trailer_tandem.pcx 178 10 01 24 12 -9 -16
  241 Y:\Documents\OTTD graphics\HEQS_build\Full HEQS\sprites\standard_trailers/medium_trailer_tandem.pcx 210 10 09 20 26 -17 -7
  242 Y:\Documents\OTTD graphics\HEQS_build\Full HEQS\sprites\standard_trailers/medium_trailer_tandem.pcx 242 10 01 16 36 -30 -8
  243 Y:\Documents\OTTD graphics\HEQS_build\Full HEQS\sprites\standard_trailers/medium_trailer_tandem.pcx 290 10 09 20 26 -13 -10
 // Medium flat trailer - copper, loaded  
  244 Y:\Documents\OTTD graphics\HEQS_build\Full HEQS\sprites\standard_trailers/medium_trailer_tandem.pcx 34 10 01 24 12 -3 -10
  245 Y:\Documents\OTTD graphics\HEQS_build\Full HEQS\sprites\standard_trailers/medium_trailer_tandem.pcx 66 10 09 20 26 -11 -9
  246 Y:\Documents\OTTD graphics\HEQS_build\Full HEQS\sprites\standard_trailers/medium_trailer_tandem.pcx 98 10 01 16 36 -14 -6
  247 Y:\Documents\OTTD graphics\HEQS_build\Full HEQS\sprites\standard_trailers/medium_trailer_tandem.pcx 146 10 09 20 26 -9 -7
  248 Y:\Documents\OTTD graphics\HEQS_build\Full HEQS\sprites\standard_trailers/medium_trailer_tandem.pcx 178 10 01 24 12 -9 -16
  249 Y:\Documents\OTTD graphics\HEQS_build\Full HEQS\sprites\standard_trailers/medium_trailer_tandem.pcx 210 10 09 20 26 -17 -7
  250 Y:\Documents\OTTD graphics\HEQS_build\Full HEQS\sprites\standard_trailers/medium_trailer_tandem.pcx 242 10 01 16 36 -30 -8
  251 Y:\Documents\OTTD graphics\HEQS_build\Full HEQS\sprites\standard_trailers/medium_trailer_tandem.pcx 290 10 09 20 26 -13 -10
  252 * 17	 02 01 09  03 03   00 00  01 00  02 00    00 00  01 00  02 00
  253 * 17	 02 01 0B  03 03   00 00  03 00  04 00    00 00  03 00  04 00
  254 * 17	 02 01 07  03 03   05 00  06 00  07 00    05 00  06 00  07 00
  255 * 17	 02 01 04  03 03   00 00  07 00  08 00    00 00  07 00  08 00
  256 * 17	 02 01 18  03 03   00 00  09 00  0A 00    00 00  09 00  0A 00 
  257 * 17	 02 01 19  03 03   00 00  09 00  0B 00    00 00  09 00  0B 00 // copper ? 
  // Medium tank trailer
  258 * 4	 01 01 01 08
  259 Y:\Documents\OTTD graphics\HEQS_build\Full HEQS\sprites\standard_trailers/medium_trailer_tandem.pcx 34 10 01 24 12 -3 -10
  260 Y:\Documents\OTTD graphics\HEQS_build\Full HEQS\sprites\standard_trailers/medium_trailer_tandem.pcx 66 10 09 20 26 -11 -9
  261 Y:\Documents\OTTD graphics\HEQS_build\Full HEQS\sprites\standard_trailers/medium_trailer_tandem.pcx 98 10 01 16 36 -14 -6
  262 Y:\Documents\OTTD graphics\HEQS_build\Full HEQS\sprites\standard_trailers/medium_trailer_tandem.pcx 146 10 09 20 26 -9 -7
  263 Y:\Documents\OTTD graphics\HEQS_build\Full HEQS\sprites\standard_trailers/medium_trailer_tandem.pcx 178 10 01 24 12 -9 -16
  264 Y:\Documents\OTTD graphics\HEQS_build\Full HEQS\sprites\standard_trailers/medium_trailer_tandem.pcx 210 10 09 20 26 -17 -7
  265 Y:\Documents\OTTD graphics\HEQS_build\Full HEQS\sprites\standard_trailers/medium_trailer_tandem.pcx 242 10 01 16 36 -30 -8
  266 Y:\Documents\OTTD graphics\HEQS_build\Full HEQS\sprites\standard_trailers/medium_trailer_tandem.pcx 290 10 09 20 26 -13 -10
  267 * 9	 02 01 03   01 01    00 00    00 00
  268 * 4	 01 01 01 08
  269 Y:\Documents\OTTD graphics\HEQS_build\Full HEQS\sprites/heqs2.pcx 770 424 01 18 8 -3 -10
  270 Y:\Documents\OTTD graphics\HEQS_build\Full HEQS\sprites/heqs2.pcx 2 456 09 16 20 -14 -7
  271 Y:\Documents\OTTD graphics\HEQS_build\Full HEQS\sprites/heqs2.pcx 34 456 01 12 28 -14 -6
  272 Y:\Documents\OTTD graphics\HEQS_build\Full HEQS\sprites/heqs2.pcx 82 456 09 16 20 -6 -8
  273 Y:\Documents\OTTD graphics\HEQS_build\Full HEQS\sprites/heqs2.pcx 114 456 01 18 8 -3 -10
  274 Y:\Documents\OTTD graphics\HEQS_build\Full HEQS\sprites/heqs2.pcx 130 456 09 16 20 -14 -8
  275 Y:\Documents\OTTD graphics\HEQS_build\Full HEQS\sprites/heqs2.pcx 162 456 01 12 28 -14 -6
  276 Y:\Documents\OTTD graphics\HEQS_build\Full HEQS\sprites/heqs2.pcx 210 456 09 16 20 -6 -7
  277 * 9	 02 01 0C   01 01    00 00    00 00
  // Var action 2 ID schema: B = bulk, C = Covered, F = Flat
  278 * 18	 02 01 AC  // text suffixes
                 81 F2 00 FF //
                 02 // range
                  00 80 00 00 // 
                  01 80 01 01 //  
                 FF 80
  // AB, AA contain some code to allow refit to multiple cargos, this is unused until additional sprites are drawn.
//!!Warning (100): Default ID appears earlier in sprite.
//!!Warning (100): Default ID appears earlier in sprite.
  279 * 18	 02 01 AB  // choose sprites according to refit
                 81 F2 00 FF //
                 02 // range
                  05 00 00 00 // 
                  05 00 01 01 // 
                 05 00 // default 
  280 * 14	 02 01 AA  // handle callbacks
                 81 0C 00 FF //
                 01 // range
                  04 80 11 11 // vehicle length CB
                  //AC 00 19 19 // text suffix CB 
                 05 00 // graphics
  281 * 49	 03 01 01 00 // Action 3
    0E // Number of different cargo types to support (!! Hex) 
    01 01 00 // coal
    03 03 00 // oil
    04 04 00 // livestock
    06 06 00 // grain 
    07 07 00 // wood
    08 08 00 // iron ore
	  09 09 00 // steel
	  0B 0B 00 // paper
	  0E 0E 00 // copper ore
	  0F 03 00 // water
	  10 03 00 // rubber
	  1B 06 00 // wheat
	  1D 06 00 // maize
	  1E 07 00 // tropical wood
	  AA 00 // default (box trailer)

   // ------------ end of Medium Trailers ------------------ //

  // -------------- Bulldozer Trailers --------------- //

  // Bulldozer trailer standard
       // Rough order of business here
       // Bulldozer trailers vary capacity depending on date vehicle is built
       // Can't get CB 36 to do that on build, only on refit (oh so close)
       // So instead define multiple vehicles using the same real sprites
       // Only difference is capacity
       // Lead vehicle chooses different trailers depending on date
       // This is inefficient on source code, also on ID use, but we have 255 IDs to play with so should be ok.
     // NOTE: Don't use IDs > 128 for trailers in articulated consists (lead vehicle ID can be > 128)
  282 * 67	 00 01 19 01 6E
      00 00 00  // intro date
      02 20     // reliability
      03 19     // vehicle life
      04 23     // class life
      06 00     // climate
      07 05     // load amount
      08 E0     // speed in mph * 3.2
      09 08     // running cost factor
      0A 48 4C 00 00 13 00 14 20    // running cost base
      0E FF     // sprite ID
      0F \b10     // capacity
      10 06     // cargo type
      11 00     // cost factor
      12 00     // sound effect
      15 38     // speed in mph * 0.8
      16 00 00 00 00    // Bit mask of cargo types available for refitting
      17 30     // Callback flags bit mask
      1A 00     // Refit cost, using 25% of the purchase price cost base
      1B 00     // Retire vehicle early, this many years before the end of phase 2
      1C 02     // Miscellaneous vehicle flags 
      1D FF 03      // Refittable cargo classes
      1E 01 00      // Non-refittable cargo classes
      1F 60 B3 0A 00    // Long format introduction date     
  283 * 67	 00 01 19 01 6F
      00 00 00  // intro date
      02 20     // reliability
      03 19     // vehicle life
      04 23     // class life
      06 00     // climate
      07 05     // load amount
      08 E0     // speed in mph * 3.2
      09 08     // running cost factor
      0A 48 4C 00 00 13 00 14 20    // running cost base
      0E FF     // sprite ID
      0F \b12     // capacity
      10 06     // cargo type
      11 00     // cost factor
      12 00     // sound effect
      15 38     // speed in mph * 0.8
      16 00 00 00 00    // Bit mask of cargo types available for refitting
      17 30     // Callback flags bit mask
      1A 00     // Refit cost, using 25% of the purchase price cost base
      1B 00     // Retire vehicle early, this many years before the end of phase 2
      1C 02     // Miscellaneous vehicle flags 
      1D FF 03      // Refittable cargo classes
      1E 01 00      // Non-refittable cargo classes
      1F 60 B3 0A 00    // Long format introduction date     
  284 * 67	 00 01 19 01 70
      00 00 00  // intro date
      02 20     // reliability
      03 19     // vehicle life
      04 23     // class life
      06 00     // climate
      07 05     // load amount
      08 E0     // speed in mph * 3.2
      09 08     // running cost factor
      0A 48 4C 00 00 13 00 14 20    // running cost base
      0E FF     // sprite ID
      0F \b14     // capacity
      10 06     // cargo type
      11 00     // cost factor
      12 00     // sound effect
      15 38     // speed in mph * 0.8
      16 00 00 00 00    // Bit mask of cargo types available for refitting
      17 30     // Callback flags bit mask
      1A 00     // Refit cost, using 25% of the purchase price cost base
      1B 00     // Retire vehicle early, this many years before the end of phase 2
      1C 02     // Miscellaneous vehicle flags 
      1D FF 03      // Refittable cargo classes
      1E 01 00      // Non-refittable cargo classes
      1F 60 B3 0A 00    // Long format introduction date     
  285 * 67	 00 01 19 01 71
      00 00 00  // intro date
      02 20     // reliability
      03 19     // vehicle life
      04 23     // class life
      06 00     // climate
      07 05     // load amount
      08 E0     // speed in mph * 3.2
      09 08     // running cost factor
      0A 48 4C 00 00 13 00 14 20    // running cost base
      0E FF     // sprite ID
      0F \b16     // capacity
      10 06     // cargo type
      11 00     // cost factor
      12 00     // sound effect
      15 38     // speed in mph * 0.8
      16 00 00 00 00    // Bit mask of cargo types available for refitting
      17 30     // Callback flags bit mask
      1A 00     // Refit cost, using 25% of the purchase price cost base
      1B 00     // Retire vehicle early, this many years before the end of phase 2
      1C 02     // Miscellaneous vehicle flags 
      1D FF 03      // Refittable cargo classes
      1E 01 00      // Non-refittable cargo classes
      1F 60 B3 0A 00    // Long format introduction date     
  286 * 67	 00 01 19 01 72
      00 00 00  // intro date
      02 20     // reliability
      03 19     // vehicle life
      04 23     // class life
      06 00     // climate
      07 05     // load amount
      08 E0     // speed in mph * 3.2
      09 08     // running cost factor
      0A 48 4C 00 00 13 00 14 20    // running cost base
      0E FF     // sprite ID
      0F \b19     // capacity
      10 06     // cargo type
      11 00     // cost factor
      12 00     // sound effect
      15 38     // speed in mph * 0.8
      16 00 00 00 00    // Bit mask of cargo types available for refitting
      17 30     // Callback flags bit mask
      1A 00     // Refit cost, using 25% of the purchase price cost base
      1B 00     // Retire vehicle early, this many years before the end of phase 2
      1C 02     // Miscellaneous vehicle flags 
      1D FF 03      // Refittable cargo classes
      1E 01 00      // Non-refittable cargo classes
      1F 60 B3 0A 00    // Long format introduction date     
  287 * 67	 00 01 19 01 73
      00 00 00  // intro date
      02 20     // reliability
      03 19     // vehicle life
      04 23     // class life
      06 00     // climate
      07 05     // load amount
      08 E0     // speed in mph * 3.2
      09 08     // running cost factor
      0A 48 4C 00 00 13 00 14 20    // running cost base
      0E FF     // sprite ID
      0F \b22     // capacity
      10 06     // cargo type
      11 00     // cost factor
      12 00     // sound effect
      15 38     // speed in mph * 0.8
      16 00 00 00 00    // Bit mask of cargo types available for refitting
      17 30     // Callback flags bit mask
      1A 00     // Refit cost, using 25% of the purchase price cost base
      1B 00     // Retire vehicle early, this many years before the end of phase 2
      1C 02     // Miscellaneous vehicle flags 
      1D FF 03      // Refittable cargo classes
      1E 01 00      // Non-refittable cargo classes
      1F 60 B3 0A 00    // Long format introduction date     
  288 * 42	 04 01 7F 01 70 "[Generic Standard bulldozer Trailer]" 00
  // define additional text suffixes
  289 * 33	 04 00 81 02 00 D0
            		" (Wheeled Trailer)" 00	// D000 = "1st class"
               	" (Sled)" 00	// D001 = "2nd class"
  // Action 2 ID schema: 0 / 1 = wheeled trailer, 2 / 3 = sled
   // Standard bulldozer Goods Trailer
  290 * 4	 01 01 01 08
  291 Y:\Documents\OTTD graphics\HEQS_build\Full HEQS\sprites\standard_trailers/medium_trailer_4_wheel.pcx 34 570 01 24 12 -3 -10
  292 Y:\Documents\OTTD graphics\HEQS_build\Full HEQS\sprites\standard_trailers/medium_trailer_4_wheel.pcx 66 570 01 20 26 -11 -9
  293 Y:\Documents\OTTD graphics\HEQS_build\Full HEQS\sprites\standard_trailers/medium_trailer_4_wheel.pcx 98 570 01 16 36 -14 -6
  294 Y:\Documents\OTTD graphics\HEQS_build\Full HEQS\sprites\standard_trailers/medium_trailer_4_wheel.pcx 146 570 01 20 26 -9 -7
  295 Y:\Documents\OTTD graphics\HEQS_build\Full HEQS\sprites\standard_trailers/medium_trailer_4_wheel.pcx 178 570 01 24 12 -9 -16
  296 Y:\Documents\OTTD graphics\HEQS_build\Full HEQS\sprites\standard_trailers/medium_trailer_4_wheel.pcx 210 570 01 20 26 -17 -7
  297 Y:\Documents\OTTD graphics\HEQS_build\Full HEQS\sprites\standard_trailers/medium_trailer_4_wheel.pcx 242 570 01 16 36 -30 -8
  298 Y:\Documents\OTTD graphics\HEQS_build\Full HEQS\sprites\standard_trailers/medium_trailer_4_wheel.pcx 290 570 01 20 26 -13 -10
  299 * 9	 02 01 05   01 01   00 00    00 00
   // Standard bulldozer Goods Sled
  300 * 4	 01 01 01 08
  301 Y:\Documents\OTTD graphics\HEQS_build\Full HEQS\sprites\standard_trailers/medium_sled.pcx 34 570 01 24 12 -3 -10
  302 Y:\Documents\OTTD graphics\HEQS_build\Full HEQS\sprites\standard_trailers/medium_sled.pcx 66 570 01 20 26 -11 -9
  303 Y:\Documents\OTTD graphics\HEQS_build\Full HEQS\sprites\standard_trailers/medium_sled.pcx 98 570 01 16 36 -14 -6
  304 Y:\Documents\OTTD graphics\HEQS_build\Full HEQS\sprites\standard_trailers/medium_sled.pcx 146 570 01 20 26 -9 -7
  305 Y:\Documents\OTTD graphics\HEQS_build\Full HEQS\sprites\standard_trailers/medium_sled.pcx 178 570 01 24 12 -9 -16
  306 Y:\Documents\OTTD graphics\HEQS_build\Full HEQS\sprites\standard_trailers/medium_sled.pcx 210 570 01 20 26 -17 -7
  307 Y:\Documents\OTTD graphics\HEQS_build\Full HEQS\sprites\standard_trailers/medium_sled.pcx 242 570 01 16 36 -30 -8
  308 Y:\Documents\OTTD graphics\HEQS_build\Full HEQS\sprites\standard_trailers/medium_sled.pcx 290 570 01 20 26 -13 -10
  309 * 9	 02 01 25   01 01   00 00    00 00
   // Standard bulldozer end dump trailer - empty
  310 * 4	 01 01 0D 08
  311 Y:\Documents\OTTD graphics\HEQS_build\Full HEQS\sprites\standard_trailers/medium_trailer_4_wheel.pcx 34 50 01 24 12 -3 -10
  312 Y:\Documents\OTTD graphics\HEQS_build\Full HEQS\sprites\standard_trailers/medium_trailer_4_wheel.pcx 66 50 09 20 26 -11 -9
  313 Y:\Documents\OTTD graphics\HEQS_build\Full HEQS\sprites\standard_trailers/medium_trailer_4_wheel.pcx 98 50 01 16 36 -14 -6
  314 Y:\Documents\OTTD graphics\HEQS_build\Full HEQS\sprites\standard_trailers/medium_trailer_4_wheel.pcx 146 50 09 20 26 -9 -7
  315 Y:\Documents\OTTD graphics\HEQS_build\Full HEQS\sprites\standard_trailers/medium_trailer_4_wheel.pcx 178 50 01 24 12 -9 -16
  316 Y:\Documents\OTTD graphics\HEQS_build\Full HEQS\sprites\standard_trailers/medium_trailer_4_wheel.pcx 210 50 09 20 26 -17 -7
  317 Y:\Documents\OTTD graphics\HEQS_build\Full HEQS\sprites\standard_trailers/medium_trailer_4_wheel.pcx 242 50 01 16 36 -30 -8
  318 Y:\Documents\OTTD graphics\HEQS_build\Full HEQS\sprites\standard_trailers/medium_trailer_4_wheel.pcx 290 50 09 20 26 -13 -10
   // Standard bulldozer end dump - iron ore, loading
  319 Y:\Documents\OTTD graphics\HEQS_build\Full HEQS\sprites\standard_trailers/medium_trailer_4_wheel.pcx 34 490 01 24 12 -3 -10
  320 Y:\Documents\OTTD graphics\HEQS_build\Full HEQS\sprites\standard_trailers/medium_trailer_4_wheel.pcx 66 490 09 20 20 -11 -9
  321 Y:\Documents\OTTD graphics\HEQS_build\Full HEQS\sprites\standard_trailers/medium_trailer_4_wheel.pcx 98 490 01 16 36 -14 -6
  322 Y:\Documents\OTTD graphics\HEQS_build\Full HEQS\sprites\standard_trailers/medium_trailer_4_wheel.pcx 146 490 09 20 26 -9 -7
  323 Y:\Documents\OTTD graphics\HEQS_build\Full HEQS\sprites\standard_trailers/medium_trailer_4_wheel.pcx 178 490 01 24 12 -9 -16
  324 Y:\Documents\OTTD graphics\HEQS_build\Full HEQS\sprites\standard_trailers/medium_trailer_4_wheel.pcx 210 490 09 20 26 -17 -7
  325 Y:\Documents\OTTD graphics\HEQS_build\Full HEQS\sprites\standard_trailers/medium_trailer_4_wheel.pcx 242 490 01 16 36 -30 -8
  326 Y:\Documents\OTTD graphics\HEQS_build\Full HEQS\sprites\standard_trailers/medium_trailer_4_wheel.pcx 290 490 09 20 26 -13 -10
   // Standard bulldozer end dump - iron ore, loaded
  327 Y:\Documents\OTTD graphics\HEQS_build\Full HEQS\sprites\standard_trailers/medium_trailer_4_wheel.pcx 34 530 01 24 12 -3 -10
  328 Y:\Documents\OTTD graphics\HEQS_build\Full HEQS\sprites\standard_trailers/medium_trailer_4_wheel.pcx 66 530 09 20 20 -11 -9
  329 Y:\Documents\OTTD graphics\HEQS_build\Full HEQS\sprites\standard_trailers/medium_trailer_4_wheel.pcx 98 530 01 16 36 -14 -6
  330 Y:\Documents\OTTD graphics\HEQS_build\Full HEQS\sprites\standard_trailers/medium_trailer_4_wheel.pcx 146 530 09 20 26 -9 -7
  331 Y:\Documents\OTTD graphics\HEQS_build\Full HEQS\sprites\standard_trailers/medium_trailer_4_wheel.pcx 178 530 01 24 12 -9 -16
  332 Y:\Documents\OTTD graphics\HEQS_build\Full HEQS\sprites\standard_trailers/medium_trailer_4_wheel.pcx 210 530 09 20 26 -17 -7
  333 Y:\Documents\OTTD graphics\HEQS_build\Full HEQS\sprites\standard_trailers/medium_trailer_4_wheel.pcx 242 530 01 16 36 -30 -8
  334 Y:\Documents\OTTD graphics\HEQS_build\Full HEQS\sprites\standard_trailers/medium_trailer_4_wheel.pcx 290 530 09 20 26 -13 -10
   // Standard bulldozer end dump - coal, loading
  335 Y:\Documents\OTTD graphics\HEQS_build\Full HEQS\sprites\standard_trailers/medium_trailer_4_wheel.pcx 34 170 01 24 12 -3 -10
  336 Y:\Documents\OTTD graphics\HEQS_build\Full HEQS\sprites\standard_trailers/medium_trailer_4_wheel.pcx 66 170 09 20 26 -11 -9
  337 Y:\Documents\OTTD graphics\HEQS_build\Full HEQS\sprites\standard_trailers/medium_trailer_4_wheel.pcx 98 170 01 16 36 -14 -6
  338 Y:\Documents\OTTD graphics\HEQS_build\Full HEQS\sprites\standard_trailers/medium_trailer_4_wheel.pcx 146 170 09 20 26 -9 -7
  339 Y:\Documents\OTTD graphics\HEQS_build\Full HEQS\sprites\standard_trailers/medium_trailer_4_wheel.pcx 178 170 01 24 12 -9 -16
  340 Y:\Documents\OTTD graphics\HEQS_build\Full HEQS\sprites\standard_trailers/medium_trailer_4_wheel.pcx 210 170 09 20 26 -17 -7
  341 Y:\Documents\OTTD graphics\HEQS_build\Full HEQS\sprites\standard_trailers/medium_trailer_4_wheel.pcx 242 170 01 16 36 -30 -8
  342 Y:\Documents\OTTD graphics\HEQS_build\Full HEQS\sprites\standard_trailers/medium_trailer_4_wheel.pcx 290 170 09 20 26 -13 -10
   // Standard bulldozer end dump - coal, loaded
  343 Y:\Documents\OTTD graphics\HEQS_build\Full HEQS\sprites\standard_trailers/medium_trailer_4_wheel.pcx 34 210 01 24 12 -3 -10
  344 Y:\Documents\OTTD graphics\HEQS_build\Full HEQS\sprites\standard_trailers/medium_trailer_4_wheel.pcx 66 210 09 20 26 -11 -9
  345 Y:\Documents\OTTD graphics\HEQS_build\Full HEQS\sprites\standard_trailers/medium_trailer_4_wheel.pcx 98 210 01 16 36 -14 -6
  346 Y:\Documents\OTTD graphics\HEQS_build\Full HEQS\sprites\standard_trailers/medium_trailer_4_wheel.pcx 146 210 09 20 26 -9 -7
  347 Y:\Documents\OTTD graphics\HEQS_build\Full HEQS\sprites\standard_trailers/medium_trailer_4_wheel.pcx 178 210 01 24 12 -9 -16
  348 Y:\Documents\OTTD graphics\HEQS_build\Full HEQS\sprites\standard_trailers/medium_trailer_4_wheel.pcx 210 210 09 20 26 -17 -7
  349 Y:\Documents\OTTD graphics\HEQS_build\Full HEQS\sprites\standard_trailers/medium_trailer_4_wheel.pcx 242 210 01 16 36 -30 -8
  350 Y:\Documents\OTTD graphics\HEQS_build\Full HEQS\sprites\standard_trailers/medium_trailer_4_wheel.pcx 290 210 09 20 26 -13 -10
   // Standard bulldozer end dump - grain, loading
  351 Y:\Documents\OTTD graphics\HEQS_build\Full HEQS\sprites\standard_trailers/medium_trailer_4_wheel.pcx 34 250 01 24 12 -3 -10
  352 Y:\Documents\OTTD graphics\HEQS_build\Full HEQS\sprites\standard_trailers/medium_trailer_4_wheel.pcx 66 250 09 20 26 -11 -9
  353 Y:\Documents\OTTD graphics\HEQS_build\Full HEQS\sprites\standard_trailers/medium_trailer_4_wheel.pcx 98 250 01 16 36 -14 -6
  354 Y:\Documents\OTTD graphics\HEQS_build\Full HEQS\sprites\standard_trailers/medium_trailer_4_wheel.pcx 146 250 09 20 26 -9 -7
  355 Y:\Documents\OTTD graphics\HEQS_build\Full HEQS\sprites\standard_trailers/medium_trailer_4_wheel.pcx 178 250 01 24 12 -9 -16
  356 Y:\Documents\OTTD graphics\HEQS_build\Full HEQS\sprites\standard_trailers/medium_trailer_4_wheel.pcx 210 250 09 20 26 -17 -7
  357 Y:\Documents\OTTD graphics\HEQS_build\Full HEQS\sprites\standard_trailers/medium_trailer_4_wheel.pcx 242 250 01 16 36 -30 -8
  358 Y:\Documents\OTTD graphics\HEQS_build\Full HEQS\sprites\standard_trailers/medium_trailer_4_wheel.pcx 290 250 09 20 26 -13 -10
  // Standard bulldozer end dump - grain, loaded
  359 Y:\Documents\OTTD graphics\HEQS_build\Full HEQS\sprites\standard_trailers/medium_trailer_4_wheel.pcx 34 290 01 24 12 -3 -10
  360 Y:\Documents\OTTD graphics\HEQS_build\Full HEQS\sprites\standard_trailers/medium_trailer_4_wheel.pcx 66 290 09 20 26 -11 -9
  361 Y:\Documents\OTTD graphics\HEQS_build\Full HEQS\sprites\standard_trailers/medium_trailer_4_wheel.pcx 98 290 01 16 36 -14 -6
  362 Y:\Documents\OTTD graphics\HEQS_build\Full HEQS\sprites\standard_trailers/medium_trailer_4_wheel.pcx 146 290 09 20 26 -9 -7
  363 Y:\Documents\OTTD graphics\HEQS_build\Full HEQS\sprites\standard_trailers/medium_trailer_4_wheel.pcx 178 290 01 24 12 -9 -16
  364 Y:\Documents\OTTD graphics\HEQS_build\Full HEQS\sprites\standard_trailers/medium_trailer_4_wheel.pcx 210 290 09 20 26 -17 -7
  365 Y:\Documents\OTTD graphics\HEQS_build\Full HEQS\sprites\standard_trailers/medium_trailer_4_wheel.pcx 242 290 01 16 36 -30 -8
  366 Y:\Documents\OTTD graphics\HEQS_build\Full HEQS\sprites\standard_trailers/medium_trailer_4_wheel.pcx 290 290 09 20 26 -13 -10
  // Standard bulldozer end dump - brown, loading
  367 Y:\Documents\OTTD graphics\HEQS_build\Full HEQS\sprites\standard_trailers/medium_trailer_4_wheel.pcx 34 410 01 24 12 -3 -10
  368 Y:\Documents\OTTD graphics\HEQS_build\Full HEQS\sprites\standard_trailers/medium_trailer_4_wheel.pcx 66 410 09 20 26 -11 -9
  369 Y:\Documents\OTTD graphics\HEQS_build\Full HEQS\sprites\standard_trailers/medium_trailer_4_wheel.pcx 98 410 01 16 36 -14 -6
  370 Y:\Documents\OTTD graphics\HEQS_build\Full HEQS\sprites\standard_trailers/medium_trailer_4_wheel.pcx 146 410 09 20 26 -9 -7
  371 Y:\Documents\OTTD graphics\HEQS_build\Full HEQS\sprites\standard_trailers/medium_trailer_4_wheel.pcx 178 410 01 24 12 -9 -16
  372 Y:\Documents\OTTD graphics\HEQS_build\Full HEQS\sprites\standard_trailers/medium_trailer_4_wheel.pcx 210 410 09 20 26 -17 -7
  373 Y:\Documents\OTTD graphics\HEQS_build\Full HEQS\sprites\standard_trailers/medium_trailer_4_wheel.pcx 242 410 01 16 36 -30 -8
  374 Y:\Documents\OTTD graphics\HEQS_build\Full HEQS\sprites\standard_trailers/medium_trailer_4_wheel.pcx 290 410 09 20 26 -13 -10
  // Standard bulldozer end dump - brown, loaded
  375 Y:\Documents\OTTD graphics\HEQS_build\Full HEQS\sprites\standard_trailers/medium_trailer_4_wheel.pcx 34 450 01 24 12 -3 -10
  376 Y:\Documents\OTTD graphics\HEQS_build\Full HEQS\sprites\standard_trailers/medium_trailer_4_wheel.pcx 66 450 09 20 26 -11 -9
  377 Y:\Documents\OTTD graphics\HEQS_build\Full HEQS\sprites\standard_trailers/medium_trailer_4_wheel.pcx 98 450 01 16 36 -14 -6
  378 Y:\Documents\OTTD graphics\HEQS_build\Full HEQS\sprites\standard_trailers/medium_trailer_4_wheel.pcx 146 450 09 20 26 -9 -7
  379 Y:\Documents\OTTD graphics\HEQS_build\Full HEQS\sprites\standard_trailers/medium_trailer_4_wheel.pcx 178 450 01 24 12 -9 -16
  380 Y:\Documents\OTTD graphics\HEQS_build\Full HEQS\sprites\standard_trailers/medium_trailer_4_wheel.pcx 210 450 09 20 26 -17 -7
  381 Y:\Documents\OTTD graphics\HEQS_build\Full HEQS\sprites\standard_trailers/medium_trailer_4_wheel.pcx 242 450 01 16 36 -30 -8
  382 Y:\Documents\OTTD graphics\HEQS_build\Full HEQS\sprites\standard_trailers/medium_trailer_4_wheel.pcx 290 450 09 20 26 -13 -10
  // Standard bulldozer end dump - red, loading
  383 Y:\Documents\OTTD graphics\HEQS_build\Full HEQS\sprites\standard_trailers/medium_trailer_4_wheel.pcx 34 370 01 24 12 -3 -10
  384 Y:\Documents\OTTD graphics\HEQS_build\Full HEQS\sprites\standard_trailers/medium_trailer_4_wheel.pcx 66 370 09 20 26 -11 -9
  385 Y:\Documents\OTTD graphics\HEQS_build\Full HEQS\sprites\standard_trailers/medium_trailer_4_wheel.pcx 98 370 01 16 36 -14 -6
  386 Y:\Documents\OTTD graphics\HEQS_build\Full HEQS\sprites\standard_trailers/medium_trailer_4_wheel.pcx 146 370 09 20 26 -9 -7
  387 Y:\Documents\OTTD graphics\HEQS_build\Full HEQS\sprites\standard_trailers/medium_trailer_4_wheel.pcx 178 370 01 24 12 -9 -16
  388 Y:\Documents\OTTD graphics\HEQS_build\Full HEQS\sprites\standard_trailers/medium_trailer_4_wheel.pcx 210 370 09 20 26 -17 -7
  389 Y:\Documents\OTTD graphics\HEQS_build\Full HEQS\sprites\standard_trailers/medium_trailer_4_wheel.pcx 242 370 01 16 36 -30 -8
  390 Y:\Documents\OTTD graphics\HEQS_build\Full HEQS\sprites\standard_trailers/medium_trailer_4_wheel.pcx 290 370 09 20 26 -13 -10
  // Standard bulldozer end dump - red, loaded
  391 Y:\Documents\OTTD graphics\HEQS_build\Full HEQS\sprites\standard_trailers/medium_trailer_4_wheel.pcx 34 370 01 24 12 -3 -10
  392 Y:\Documents\OTTD graphics\HEQS_build\Full HEQS\sprites\standard_trailers/medium_trailer_4_wheel.pcx 66 370 09 20 26 -11 -9
  393 Y:\Documents\OTTD graphics\HEQS_build\Full HEQS\sprites\standard_trailers/medium_trailer_4_wheel.pcx 98 370 01 16 36 -14 -6
  394 Y:\Documents\OTTD graphics\HEQS_build\Full HEQS\sprites\standard_trailers/medium_trailer_4_wheel.pcx 146 370 09 20 26 -9 -7
  395 Y:\Documents\OTTD graphics\HEQS_build\Full HEQS\sprites\standard_trailers/medium_trailer_4_wheel.pcx 178 370 01 24 12 -9 -16
  396 Y:\Documents\OTTD graphics\HEQS_build\Full HEQS\sprites\standard_trailers/medium_trailer_4_wheel.pcx 210 370 09 20 26 -17 -7
  397 Y:\Documents\OTTD graphics\HEQS_build\Full HEQS\sprites\standard_trailers/medium_trailer_4_wheel.pcx 242 370 01 16 36 -30 -8
  398 Y:\Documents\OTTD graphics\HEQS_build\Full HEQS\sprites\standard_trailers/medium_trailer_4_wheel.pcx 290 370 09 20 26 -13 -10
  // Standard bulldozer end dump - grey, loading
  399 Y:\Documents\OTTD graphics\HEQS_build\Full HEQS\sprites\standard_trailers/medium_trailer_4_wheel.pcx 34 90 01 24 12 -3 -10
  400 Y:\Documents\OTTD graphics\HEQS_build\Full HEQS\sprites\standard_trailers/medium_trailer_4_wheel.pcx 66 90 09 20 26 -11 -9
  401 Y:\Documents\OTTD graphics\HEQS_build\Full HEQS\sprites\standard_trailers/medium_trailer_4_wheel.pcx 98 90 01 16 36 -14 -6
  402 Y:\Documents\OTTD graphics\HEQS_build\Full HEQS\sprites\standard_trailers/medium_trailer_4_wheel.pcx 146 90 09 20 26 -9 -7
  403 Y:\Documents\OTTD graphics\HEQS_build\Full HEQS\sprites\standard_trailers/medium_trailer_4_wheel.pcx 178 90 01 24 12 -9 -16
  404 Y:\Documents\OTTD graphics\HEQS_build\Full HEQS\sprites\standard_trailers/medium_trailer_4_wheel.pcx 210 90 09 20 26 -17 -7
  405 Y:\Documents\OTTD graphics\HEQS_build\Full HEQS\sprites\standard_trailers/medium_trailer_4_wheel.pcx 242 90 01 16 36 -30 -8
  406 Y:\Documents\OTTD graphics\HEQS_build\Full HEQS\sprites\standard_trailers/medium_trailer_4_wheel.pcx 290 90 09 20 26 -13 -10
  // Standard bulldozer end dump - grey, loaded
  407 Y:\Documents\OTTD graphics\HEQS_build\Full HEQS\sprites\standard_trailers/medium_trailer_4_wheel.pcx 34 130 01 24 12 -3 -10
  408 Y:\Documents\OTTD graphics\HEQS_build\Full HEQS\sprites\standard_trailers/medium_trailer_4_wheel.pcx 66 130 09 20 26 -11 -9
  409 Y:\Documents\OTTD graphics\HEQS_build\Full HEQS\sprites\standard_trailers/medium_trailer_4_wheel.pcx 98 130 01 16 36 -14 -6
  410 Y:\Documents\OTTD graphics\HEQS_build\Full HEQS\sprites\standard_trailers/medium_trailer_4_wheel.pcx 146 130 09 20 26 -9 -7
  411 Y:\Documents\OTTD graphics\HEQS_build\Full HEQS\sprites\standard_trailers/medium_trailer_4_wheel.pcx 178 130 01 24 12 -9 -16
  412 Y:\Documents\OTTD graphics\HEQS_build\Full HEQS\sprites\standard_trailers/medium_trailer_4_wheel.pcx 210 130 09 20 26 -17 -7
  413 Y:\Documents\OTTD graphics\HEQS_build\Full HEQS\sprites\standard_trailers/medium_trailer_4_wheel.pcx 242 130 01 16 36 -30 -8
  414 Y:\Documents\OTTD graphics\HEQS_build\Full HEQS\sprites\standard_trailers/medium_trailer_4_wheel.pcx 290 130 09 20 26 -13 -10
  415 * 17	 02 01 08  03 03    00 00  01 00  02 00    00 00  01 00  02 00 // iron ore ?
  416 * 17	 02 01 01  03 03    00 00  03 00  04 00    00 00  03 00  04 00 // coal ?
  417 * 17	 02 01 06  03 03    00 00  05 00  06 00    00 00  05 00  06 00 // grain ?
  418 * 17	 02 01 0E  03 03    00 00  07 00  08 00    00 00  07 00  08 00 // brown ?
//!!Warning (94): Redefining ID 0C not used since previous definition at sprite 277.
  419 * 17	 02 01 0C  03 03    00 00  09 00  0A 00    00 00  09 00  0A 00 // red ?
  420 * 17	 02 01 0D  03 03    00 00  0B 00  0C 00    00 00  0B 00  0C 00 // grey ?
  // Standard bulldozer side dump sled - empty
  421 * 4	 01 01 0D 08
  422 Y:\Documents\OTTD graphics\HEQS_build\Full HEQS\sprites\standard_trailers/medium_sled.pcx 34 50 01 24 12 -3 -10
  423 Y:\Documents\OTTD graphics\HEQS_build\Full HEQS\sprites\standard_trailers/medium_sled.pcx 66 50 09 20 26 -11 -9
  424 Y:\Documents\OTTD graphics\HEQS_build\Full HEQS\sprites\standard_trailers/medium_sled.pcx 98 50 01 16 36 -14 -6
  425 Y:\Documents\OTTD graphics\HEQS_build\Full HEQS\sprites\standard_trailers/medium_sled.pcx 146 50 09 20 26 -9 -7
  426 Y:\Documents\OTTD graphics\HEQS_build\Full HEQS\sprites\standard_trailers/medium_sled.pcx 178 50 01 24 12 -9 -16
  427 Y:\Documents\OTTD graphics\HEQS_build\Full HEQS\sprites\standard_trailers/medium_sled.pcx 210 50 09 20 26 -17 -7
  428 Y:\Documents\OTTD graphics\HEQS_build\Full HEQS\sprites\standard_trailers/medium_sled.pcx 242 50 01 16 36 -30 -8
  429 Y:\Documents\OTTD graphics\HEQS_build\Full HEQS\sprites\standard_trailers/medium_sled.pcx 290 50 09 20 26 -13 -10
   // Standard bulldozer side dump sled - iron ore, loading  !! this isn't iron ore??
  430 Y:\Documents\OTTD graphics\HEQS_build\Full HEQS\sprites\standard_trailers/medium_sled.pcx 34 490 01 24 12 -3 -10
  431 Y:\Documents\OTTD graphics\HEQS_build\Full HEQS\sprites\standard_trailers/medium_sled.pcx 66 490 09 20 20 -11 -9
  432 Y:\Documents\OTTD graphics\HEQS_build\Full HEQS\sprites\standard_trailers/medium_sled.pcx 98 490 01 16 36 -14 -6
  433 Y:\Documents\OTTD graphics\HEQS_build\Full HEQS\sprites\standard_trailers/medium_sled.pcx 146 490 09 20 26 -9 -7
  434 Y:\Documents\OTTD graphics\HEQS_build\Full HEQS\sprites\standard_trailers/medium_sled.pcx 178 490 01 24 12 -9 -16
  435 Y:\Documents\OTTD graphics\HEQS_build\Full HEQS\sprites\standard_trailers/medium_sled.pcx 210 490 09 20 26 -17 -7
  436 Y:\Documents\OTTD graphics\HEQS_build\Full HEQS\sprites\standard_trailers/medium_sled.pcx 242 490 01 16 36 -30 -8
  437 Y:\Documents\OTTD graphics\HEQS_build\Full HEQS\sprites\standard_trailers/medium_sled.pcx 290 490 09 20 26 -13 -10
   // Standard bulldozer side dump sled - iron ore, loaded  !! this isn't iron ore??
  438 Y:\Documents\OTTD graphics\HEQS_build\Full HEQS\sprites\standard_trailers/medium_sled.pcx 34 530 01 24 12 -3 -10
  439 Y:\Documents\OTTD graphics\HEQS_build\Full HEQS\sprites\standard_trailers/medium_sled.pcx 66 530 09 20 20 -11 -9
  440 Y:\Documents\OTTD graphics\HEQS_build\Full HEQS\sprites\standard_trailers/medium_sled.pcx 98 530 01 16 36 -14 -6
  441 Y:\Documents\OTTD graphics\HEQS_build\Full HEQS\sprites\standard_trailers/medium_sled.pcx 146 530 09 20 26 -9 -7
  442 Y:\Documents\OTTD graphics\HEQS_build\Full HEQS\sprites\standard_trailers/medium_sled.pcx 178 530 01 24 12 -9 -16
  443 Y:\Documents\OTTD graphics\HEQS_build\Full HEQS\sprites\standard_trailers/medium_sled.pcx 210 530 09 20 26 -17 -7
  444 Y:\Documents\OTTD graphics\HEQS_build\Full HEQS\sprites\standard_trailers/medium_sled.pcx 242 530 01 16 36 -30 -8
  445 Y:\Documents\OTTD graphics\HEQS_build\Full HEQS\sprites\standard_trailers/medium_sled.pcx 290 530 09 20 26 -13 -10
   // Standard bulldozer side dump sled - coal, loading
  446 Y:\Documents\OTTD graphics\HEQS_build\Full HEQS\sprites\standard_trailers/medium_sled.pcx 34 170 01 24 12 -3 -10
  447 Y:\Documents\OTTD graphics\HEQS_build\Full HEQS\sprites\standard_trailers/medium_sled.pcx 66 170 09 20 26 -11 -9
  448 Y:\Documents\OTTD graphics\HEQS_build\Full HEQS\sprites\standard_trailers/medium_sled.pcx 98 170 01 16 36 -14 -6
  449 Y:\Documents\OTTD graphics\HEQS_build\Full HEQS\sprites\standard_trailers/medium_sled.pcx 146 170 09 20 26 -9 -7
  450 Y:\Documents\OTTD graphics\HEQS_build\Full HEQS\sprites\standard_trailers/medium_sled.pcx 178 170 01 24 12 -9 -16
  451 Y:\Documents\OTTD graphics\HEQS_build\Full HEQS\sprites\standard_trailers/medium_sled.pcx 210 170 09 20 26 -17 -7
  452 Y:\Documents\OTTD graphics\HEQS_build\Full HEQS\sprites\standard_trailers/medium_sled.pcx 242 170 01 16 36 -30 -8
  453 Y:\Documents\OTTD graphics\HEQS_build\Full HEQS\sprites\standard_trailers/medium_sled.pcx 290 170 09 20 26 -13 -10
   // Standard bulldozer side dump sled - coal, loaded
  454 Y:\Documents\OTTD graphics\HEQS_build\Full HEQS\sprites\standard_trailers/medium_sled.pcx 34 210 01 24 12 -3 -10
  455 Y:\Documents\OTTD graphics\HEQS_build\Full HEQS\sprites\standard_trailers/medium_sled.pcx 66 210 09 20 26 -11 -9
  456 Y:\Documents\OTTD graphics\HEQS_build\Full HEQS\sprites\standard_trailers/medium_sled.pcx 98 210 01 16 36 -14 -6
  457 Y:\Documents\OTTD graphics\HEQS_build\Full HEQS\sprites\standard_trailers/medium_sled.pcx 146 210 09 20 26 -9 -7
  458 Y:\Documents\OTTD graphics\HEQS_build\Full HEQS\sprites\standard_trailers/medium_sled.pcx 178 210 01 24 12 -9 -16
  459 Y:\Documents\OTTD graphics\HEQS_build\Full HEQS\sprites\standard_trailers/medium_sled.pcx 210 210 09 20 26 -17 -7
  460 Y:\Documents\OTTD graphics\HEQS_build\Full HEQS\sprites\standard_trailers/medium_sled.pcx 242 210 01 16 36 -30 -8
  461 Y:\Documents\OTTD graphics\HEQS_build\Full HEQS\sprites\standard_trailers/medium_sled.pcx 290 210 09 20 26 -13 -10
   // Standard bulldozer side dump sled - grain, loading
  462 Y:\Documents\OTTD graphics\HEQS_build\Full HEQS\sprites\standard_trailers/medium_sled.pcx 34 250 01 24 12 -3 -10
  463 Y:\Documents\OTTD graphics\HEQS_build\Full HEQS\sprites\standard_trailers/medium_sled.pcx 66 250 09 20 26 -11 -9
  464 Y:\Documents\OTTD graphics\HEQS_build\Full HEQS\sprites\standard_trailers/medium_sled.pcx 98 250 01 16 36 -14 -6
  465 Y:\Documents\OTTD graphics\HEQS_build\Full HEQS\sprites\standard_trailers/medium_sled.pcx 146 250 09 20 26 -9 -7
  466 Y:\Documents\OTTD graphics\HEQS_build\Full HEQS\sprites\standard_trailers/medium_sled.pcx 178 250 01 24 12 -9 -16
  467 Y:\Documents\OTTD graphics\HEQS_build\Full HEQS\sprites\standard_trailers/medium_sled.pcx 210 250 09 20 26 -17 -7
  468 Y:\Documents\OTTD graphics\HEQS_build\Full HEQS\sprites\standard_trailers/medium_sled.pcx 242 250 01 16 36 -30 -8
  469 Y:\Documents\OTTD graphics\HEQS_build\Full HEQS\sprites\standard_trailers/medium_sled.pcx 290 250 09 20 26 -13 -10
  // Standard bulldozer side dump sled - grain, loaded
  470 Y:\Documents\OTTD graphics\HEQS_build\Full HEQS\sprites\standard_trailers/medium_sled.pcx 34 290 01 24 12 -3 -10
  471 Y:\Documents\OTTD graphics\HEQS_build\Full HEQS\sprites\standard_trailers/medium_sled.pcx 66 290 09 20 26 -11 -9
  472 Y:\Documents\OTTD graphics\HEQS_build\Full HEQS\sprites\standard_trailers/medium_sled.pcx 98 290 01 16 36 -14 -6
  473 Y:\Documents\OTTD graphics\HEQS_build\Full HEQS\sprites\standard_trailers/medium_sled.pcx 146 290 09 20 26 -9 -7
  474 Y:\Documents\OTTD graphics\HEQS_build\Full HEQS\sprites\standard_trailers/medium_sled.pcx 178 290 01 24 12 -9 -16
  475 Y:\Documents\OTTD graphics\HEQS_build\Full HEQS\sprites\standard_trailers/medium_sled.pcx 210 290 09 20 26 -17 -7
  476 Y:\Documents\OTTD graphics\HEQS_build\Full HEQS\sprites\standard_trailers/medium_sled.pcx 242 290 01 16 36 -30 -8
  477 Y:\Documents\OTTD graphics\HEQS_build\Full HEQS\sprites\standard_trailers/medium_sled.pcx 290 290 09 20 26 -13 -10
  // Standard bulldozer side dump sled - brown, loading
  478 Y:\Documents\OTTD graphics\HEQS_build\Full HEQS\sprites\standard_trailers/medium_sled.pcx 34 410 01 24 12 -3 -10
  479 Y:\Documents\OTTD graphics\HEQS_build\Full HEQS\sprites\standard_trailers/medium_sled.pcx 66 410 09 20 26 -11 -9
  480 Y:\Documents\OTTD graphics\HEQS_build\Full HEQS\sprites\standard_trailers/medium_sled.pcx 98 410 01 16 36 -14 -6
  481 Y:\Documents\OTTD graphics\HEQS_build\Full HEQS\sprites\standard_trailers/medium_sled.pcx 146 410 09 20 26 -9 -7
  482 Y:\Documents\OTTD graphics\HEQS_build\Full HEQS\sprites\standard_trailers/medium_sled.pcx 178 410 01 24 12 -9 -16
  483 Y:\Documents\OTTD graphics\HEQS_build\Full HEQS\sprites\standard_trailers/medium_sled.pcx 210 410 09 20 26 -17 -7
  484 Y:\Documents\OTTD graphics\HEQS_build\Full HEQS\sprites\standard_trailers/medium_sled.pcx 242 410 01 16 36 -30 -8
  485 Y:\Documents\OTTD graphics\HEQS_build\Full HEQS\sprites\standard_trailers/medium_sled.pcx 290 410 09 20 26 -13 -10
  // Standard bulldozer side dump sled - brown, loaded
  486 Y:\Documents\OTTD graphics\HEQS_build\Full HEQS\sprites\standard_trailers/medium_sled.pcx 34 450 01 24 12 -3 -10
  487 Y:\Documents\OTTD graphics\HEQS_build\Full HEQS\sprites\standard_trailers/medium_sled.pcx 66 450 09 20 26 -11 -9
  488 Y:\Documents\OTTD graphics\HEQS_build\Full HEQS\sprites\standard_trailers/medium_sled.pcx 98 450 01 16 36 -14 -6
  489 Y:\Documents\OTTD graphics\HEQS_build\Full HEQS\sprites\standard_trailers/medium_sled.pcx 146 450 09 20 26 -9 -7
  490 Y:\Documents\OTTD graphics\HEQS_build\Full HEQS\sprites\standard_trailers/medium_sled.pcx 178 450 01 24 12 -9 -16
  491 Y:\Documents\OTTD graphics\HEQS_build\Full HEQS\sprites\standard_trailers/medium_sled.pcx 210 450 09 20 26 -17 -7
  492 Y:\Documents\OTTD graphics\HEQS_build\Full HEQS\sprites\standard_trailers/medium_sled.pcx 242 450 01 16 36 -30 -8
  493 Y:\Documents\OTTD graphics\HEQS_build\Full HEQS\sprites\standard_trailers/medium_sled.pcx 290 450 09 20 26 -13 -10
  // Standard bulldozer side dump sled - red, loading
  494 Y:\Documents\OTTD graphics\HEQS_build\Full HEQS\sprites\standard_trailers/medium_sled.pcx 34 330 01 24 12 -3 -10
  495 Y:\Documents\OTTD graphics\HEQS_build\Full HEQS\sprites\standard_trailers/medium_sled.pcx 66 330 09 20 26 -11 -9
  496 Y:\Documents\OTTD graphics\HEQS_build\Full HEQS\sprites\standard_trailers/medium_sled.pcx 98 330 01 16 36 -14 -6
  497 Y:\Documents\OTTD graphics\HEQS_build\Full HEQS\sprites\standard_trailers/medium_sled.pcx 146 330 09 20 26 -9 -7
  498 Y:\Documents\OTTD graphics\HEQS_build\Full HEQS\sprites\standard_trailers/medium_sled.pcx 178 330 01 24 12 -9 -16
  499 Y:\Documents\OTTD graphics\HEQS_build\Full HEQS\sprites\standard_trailers/medium_sled.pcx 210 330 09 20 26 -17 -7
  500 Y:\Documents\OTTD graphics\HEQS_build\Full HEQS\sprites\standard_trailers/medium_sled.pcx 242 330 01 16 36 -30 -8
  501 Y:\Documents\OTTD graphics\HEQS_build\Full HEQS\sprites\standard_trailers/medium_sled.pcx 290 330 09 20 26 -13 -10
  // Standard bulldozer side dump sled - red, loaded
  502 Y:\Documents\OTTD graphics\HEQS_build\Full HEQS\sprites\standard_trailers/medium_sled.pcx 34 370 01 24 12 -3 -10
  503 Y:\Documents\OTTD graphics\HEQS_build\Full HEQS\sprites\standard_trailers/medium_sled.pcx 66 370 09 20 26 -11 -9
  504 Y:\Documents\OTTD graphics\HEQS_build\Full HEQS\sprites\standard_trailers/medium_sled.pcx 98 370 01 16 36 -14 -6
  505 Y:\Documents\OTTD graphics\HEQS_build\Full HEQS\sprites\standard_trailers/medium_sled.pcx 146 370 09 20 26 -9 -7
  506 Y:\Documents\OTTD graphics\HEQS_build\Full HEQS\sprites\standard_trailers/medium_sled.pcx 178 370 01 24 12 -9 -16
  507 Y:\Documents\OTTD graphics\HEQS_build\Full HEQS\sprites\standard_trailers/medium_sled.pcx 210 370 09 20 26 -17 -7
  508 Y:\Documents\OTTD graphics\HEQS_build\Full HEQS\sprites\standard_trailers/medium_sled.pcx 242 370 01 16 36 -30 -8
  509 Y:\Documents\OTTD graphics\HEQS_build\Full HEQS\sprites\standard_trailers/medium_sled.pcx 290 370 09 20 26 -13 -10
  // Standard bulldozer side dump sled - grey, loading
  510 Y:\Documents\OTTD graphics\HEQS_build\Full HEQS\sprites\standard_trailers/medium_sled.pcx 34 90 01 24 12 -3 -10
  511 Y:\Documents\OTTD graphics\HEQS_build\Full HEQS\sprites\standard_trailers/medium_sled.pcx 66 90 09 20 26 -11 -9
  512 Y:\Documents\OTTD graphics\HEQS_build\Full HEQS\sprites\standard_trailers/medium_sled.pcx 98 90 01 16 36 -14 -6
  513 Y:\Documents\OTTD graphics\HEQS_build\Full HEQS\sprites\standard_trailers/medium_sled.pcx 146 90 09 20 26 -9 -7
  514 Y:\Documents\OTTD graphics\HEQS_build\Full HEQS\sprites\standard_trailers/medium_sled.pcx 178 90 01 24 12 -9 -16
  515 Y:\Documents\OTTD graphics\HEQS_build\Full HEQS\sprites\standard_trailers/medium_sled.pcx 210 90 09 20 26 -17 -7
  516 Y:\Documents\OTTD graphics\HEQS_build\Full HEQS\sprites\standard_trailers/medium_sled.pcx 242 90 01 16 36 -30 -8
  517 Y:\Documents\OTTD graphics\HEQS_build\Full HEQS\sprites\standard_trailers/medium_sled.pcx 290 90 09 20 26 -13 -10
  // Standard bulldozer side dump sled - grey, loaded
  518 Y:\Documents\OTTD graphics\HEQS_build\Full HEQS\sprites\standard_trailers/medium_sled.pcx 34 130 01 24 12 -3 -10
  519 Y:\Documents\OTTD graphics\HEQS_build\Full HEQS\sprites\standard_trailers/medium_sled.pcx 66 130 09 20 26 -11 -9
  520 Y:\Documents\OTTD graphics\HEQS_build\Full HEQS\sprites\standard_trailers/medium_sled.pcx 98 130 01 16 36 -14 -6
  521 Y:\Documents\OTTD graphics\HEQS_build\Full HEQS\sprites\standard_trailers/medium_sled.pcx 146 130 09 20 26 -9 -7
  522 Y:\Documents\OTTD graphics\HEQS_build\Full HEQS\sprites\standard_trailers/medium_sled.pcx 178 130 01 24 12 -9 -16
  523 Y:\Documents\OTTD graphics\HEQS_build\Full HEQS\sprites\standard_trailers/medium_sled.pcx 210 130 09 20 26 -17 -7
  524 Y:\Documents\OTTD graphics\HEQS_build\Full HEQS\sprites\standard_trailers/medium_sled.pcx 242 130 01 16 36 -30 -8
  525 Y:\Documents\OTTD graphics\HEQS_build\Full HEQS\sprites\standard_trailers/medium_sled.pcx 290 130 09 20 26 -13 -10
  526 * 17	 02 01 28  03 03    00 00  01 00  02 00    00 00  01 00  02 00 // iron ore ?
  527 * 17	 02 01 21  03 03    00 00  03 00  04 00    00 00  03 00  04 00 // coal ?
  528 * 17	 02 01 26  03 03    00 00  05 00  06 00    00 00  05 00  06 00 // grain ?
  529 * 17	 02 01 2E  03 03    00 00  07 00  08 00    00 00  07 00  08 00 // brown ?
  530 * 17	 02 01 2C  03 03    00 00  09 00  0A 00    00 00  09 00  0A 00 // red ?
  531 * 17	 02 01 2D  03 03    00 00  0B 00  0C 00    00 00  0B 00  0C 00 // grey ?
  // Standard bulldozer flat trailer
  532 * 4	 01 01 09 08
  // Standard bulldozer flat trailer - empty
  533 Y:\Documents\OTTD graphics\HEQS_build\Full HEQS\sprites\standard_trailers/medium_trailer_4_wheel.pcx 34 730 01 24 12 -3 -10
  534 Y:\Documents\OTTD graphics\HEQS_build\Full HEQS\sprites\standard_trailers/medium_trailer_4_wheel.pcx 66 730 09 20 26 -11 -9
  535 Y:\Documents\OTTD graphics\HEQS_build\Full HEQS\sprites\standard_trailers/medium_trailer_4_wheel.pcx 98 730 01 16 36 -14 -6
  536 Y:\Documents\OTTD graphics\HEQS_build\Full HEQS\sprites\standard_trailers/medium_trailer_4_wheel.pcx 146 730 09 20 26 -9 -7
  537 Y:\Documents\OTTD graphics\HEQS_build\Full HEQS\sprites\standard_trailers/medium_trailer_4_wheel.pcx 178 730 01 24 12 -9 -16
  538 Y:\Documents\OTTD graphics\HEQS_build\Full HEQS\sprites\standard_trailers/medium_trailer_4_wheel.pcx 210 730 09 20 26 -17 -7
  539 Y:\Documents\OTTD graphics\HEQS_build\Full HEQS\sprites\standard_trailers/medium_trailer_4_wheel.pcx 242 730 01 16 36 -30 -8
  540 Y:\Documents\OTTD graphics\HEQS_build\Full HEQS\sprites\standard_trailers/medium_trailer_4_wheel.pcx 290 730 09 20 26 -13 -10
  // Standard bulldozer flat trailer - steel, loading  
  541 Y:\Documents\OTTD graphics\HEQS_build\Full HEQS\sprites\standard_trailers/medium_trailer_4_wheel.pcx 34 970 01 24 12 -3 -10
  542 Y:\Documents\OTTD graphics\HEQS_build\Full HEQS\sprites\standard_trailers/medium_trailer_4_wheel.pcx 66 970 09 20 26 -11 -9
  543 Y:\Documents\OTTD graphics\HEQS_build\Full HEQS\sprites\standard_trailers/medium_trailer_4_wheel.pcx 98 970 01 16 36 -14 -6
  544 Y:\Documents\OTTD graphics\HEQS_build\Full HEQS\sprites\standard_trailers/medium_trailer_4_wheel.pcx 146 970 09 20 26 -9 -7
[...]
  // Rockchuck Peak 95t hauler grey 
 2269 Y:\Documents\OTTD graphics\HEQS_build\Full HEQS\sprites\mining_trucks/95t_mining_truck_grey.pcx 34 10 01 24 12 -5 -13
 2270 Y:\Documents\OTTD graphics\HEQS_build\Full HEQS\sprites\mining_trucks/95t_mining_truck_grey.pcx 66 10 09 20 26 -15 -8
 2271 Y:\Documents\OTTD graphics\HEQS_build\Full HEQS\sprites\mining_trucks/95t_mining_truck_grey.pcx 98 10 01 16 36 -18 -8
 2272 Y:\Documents\OTTD graphics\HEQS_build\Full HEQS\sprites\mining_trucks/95t_mining_truck_grey.pcx 146 10 09 20 26 -11 -9
 2273 Y:\Documents\OTTD graphics\HEQS_build\Full HEQS\sprites\mining_trucks/95t_mining_truck_grey.pcx 178 10 01 24 12 -5 -13
 2274 Y:\Documents\OTTD graphics\HEQS_build\Full HEQS\sprites\mining_trucks/95t_mining_truck_grey.pcx 210 10 09 20 26 -16 -9
 2275 Y:\Documents\OTTD graphics\HEQS_build\Full HEQS\sprites\mining_trucks/95t_mining_truck_grey.pcx 242 10 01 16 36 -20 -10
 2276 Y:\Documents\OTTD graphics\HEQS_build\Full HEQS\sprites\mining_trucks/95t_mining_truck_grey.pcx 290 10 09 20 26 -10 -11
 2277 * 13	 02 01 A1 02 02 00 00 01 00 00 00 01 00
 2278 * 13	 02 01 A2 02 02 00 00 02 00 00 00 02 00
 2279 * 13	 02 01 A3 02 02 00 00 03 00 00 00 03 00
 2280 * 13	 02 01 A4 02 02 00 00 04 00 00 00 04 00
 2281 * 13	 02 01 A5 02 02 00 00 05 00 00 00 05 00
 2282 * 13	 02 01 A6 02 02 00 00 06 00 00 00 06 00
 2283 * 4	 01 01 01 04 // depot sprites
 2284 * 1	 00
 2285 * 1	 00
 2286 Y:\Documents\OTTD graphics\HEQS_build\Full HEQS\sprites\mining_trucks/95t_mining_truck.pcx 370 14 01 12 36 -14 -6
 2287 * 1	 00
 2288 * 9	 02 01 AF 01 01 00 00 00 00
 2289 * 25	 03 01 01 D5 // Action 3 
   06 // number of cargo types to support
   01 A1 00
   08 A2 00
   0E A3 00 
   11 A4 00
   17 A5 00
   FF AF 00 // buy menu sprites
   A6 00 // default sprites

  // Camelback Mountain Mining Truck  240t		2001-2050	37mph
 2290 * 67	 00 01 19 01 D6
    00 \w1-1-1920  // intro date
    02 20     // reliability
    03 19     // vehicle life
    04 19     // class life
    06 0F     // climate
    07 05     // load amount
    08 \b119     // speed in mph * 3.2
    09 50     // running cost factor
    0A 48 4C 00 00 13 28 14 C8        // running cost base
    0E FF     // sprite ID
    0F 00     // capacity
    10 FF     // cargo type 
    11 5D     // cost factor
    12 19     // sound effect
    15 \b30     // speed in mph * 0.8
    16 40 00 00 28     // Bit mask of cargo types available for refitting
    // flips 1D / 1E values: excludes grain, wheat, maize
    17 12     // Callback flags bit mask
    1A 00     // Refit cost, using 25% of the purchase price cost base
    1B 00     // Retire vehicle early, this many years before the end of phase 2
    1C 02     // Miscellaneous vehicle flags
    1D 10 00          // Refittable cargo classes
    1E EF 03          // Non-refittable cargo classes
    1F 8D
    26 0B 00    // Long format introduction date
 2291 * 37	 04 01 7F 01 D6 "Camelback Mountain Mining Truck" 00
 2292 * 56	 04 01 81 01 D4 D0 "Hauls: " 8A "Two 120t belly-dump trailers" 00 // (240t total)
 2293 * 4	 01 01 01 08
  // Kilimanjaro (Articulated) dump truck empty
 2294 Y:\Documents\OTTD graphics\HEQS_build\Full HEQS\sprites\off_highway_trucks/mining_truck_chassis.pcx 34 10 01 24 12 -5 -16
 2295 Y:\Documents\OTTD graphics\HEQS_build\Full HEQS\sprites\off_highway_trucks/mining_truck_chassis.pcx 66 10 09 20 26 -15 -8
 2296 Y:\Documents\OTTD graphics\HEQS_build\Full HEQS\sprites\off_highway_trucks/mining_truck_chassis.pcx 98 10 01 16 36 -18 -10
 2297 Y:\Documents\OTTD graphics\HEQS_build\Full HEQS\sprites\off_highway_trucks/mining_truck_chassis.pcx 146 10 09 20 26 -11 -9
 2298 Y:\Documents\OTTD graphics\HEQS_build\Full HEQS\sprites\off_highway_trucks/mining_truck_chassis.pcx 178 10 01 24 12 -5 -15
 2299 Y:\Documents\OTTD graphics\HEQS_build\Full HEQS\sprites\off_highway_trucks/mining_truck_chassis.pcx 210 10 09 20 26 -16 -9
 2300 Y:\Documents\OTTD graphics\HEQS_build\Full HEQS\sprites\off_highway_trucks/mining_truck_chassis.pcx 242 10 01 16 36 -20 -10
 2301 Y:\Documents\OTTD graphics\HEQS_build\Full HEQS\sprites\off_highway_trucks/mining_truck_chassis.pcx 290 10 09 20 26 -10 -11
 2302 * 9	 02 01 A1 01 01 00 00 00 00 //normal action2 defining graphics with no loading/loaded stages
 2303 * 4	 01 01 01 04
 2304 * 1	 00
 2305 * 1	 00
 2306 Y:\Documents\OTTD graphics\HEQS_build\Full HEQS\sprites\off_highway_trucks/mining_truck_chassis.pcx 370 14 01 12 36 -14 -6
 2307 * 1	 00
 2308 * 9	 02 01 F1 // action2 buy menu sprites 
      01 // number loading states
      01 // number loaded states
      00 00 // loading sprites
      00 00 // loaded sprites
 2309 * 14	 02 01 F0 // varaction 2 handles buy menu callbacks 
                 81 0C 00 FF //check byte value of variable 81 (no bit shift, FF andmask)
                 01 // range
                   D4 80 23 23 // text for vehicle window
                 F1 00 //otherwise go to next action 2 ID 
 2310 * 22	 02 01 B0 //ID B0
               81 10 00 FF //check byte value of variable 10 (no bit shift, FF andmask)
               03 //check one ranges
               07 80 01 01 //give callback result
               05 80 02 02 //give callback result
               07 80 03 03 //give callback result
               FF FF //otherwise end the callback chain
 2311 * 14	 02 01 B6 // provide correct refit/capacity information in buy menu (credits to DJ Nekkid for solution)
               82 40 10 FF // check vehicle length    
               01 // check one range
                 F0 00 00 00 // if length is 0 use purchase menu sprite
               A1 00 // else go to action 2 to apply graphics
 2312 * 18	 02 01 B1 //
               81 0C 00 FF // handle callbacks
               02 // range
                 02 80 11 11 // vehicle length CB
                 B0 00 16 16 // articulated vehicle building instructions
               B6 00 //otherwise go to next action 2 ID 
 2313 * 7	 03 01 01 D6  // Action 3
    00  // Number of different cargo types to support 
    B1 00   // Action 2 ID above  

  // Kilimanjaro Mining Hauler  160t	1200hp	1990-2050	57mph
 2314 * 67	 00 01 19 01 D7
    00 \w1-1-1920  // intro date
    02 20     // reliability
    03 19     // vehicle life
    04 19     // class life
    06 0F     // climate
    07 05     // load amount
    08 \b182     // speed in mph * 3.2
    09 50     // running cost factor
    0A 48 4C 00 00 13 28 14 C8        // running cost base
    0E FF     // sprite ID
    0F \b160     // capacity
    10 FF     // cargo type 
    11 5D     // cost factor
    12 19     // sound effect
    15 \b46     // speed in mph * 0.8
    16 40 00 00 28     // Bit mask of cargo types available for refitting
    // flips 1D / 1E values: excludes grain, wheat, maize
    17 00     // Callback flags bit mask
    1A 00     // Refit cost, using 25% of the purchase price cost base
    1B 00     // Retire vehicle early, this many years before the end of phase 2
    1C 02     // Miscellaneous vehicle flags
    1D 10 00          // Refittable cargo classes
    1E EF 03          // Non-refittable cargo classes
    1F \d726840   // Long format introduction date (dword)
 2315 * 39	 04 01 7F 01 D7 "Kilimanjaro Unitised Mining Truck" 00
 2316 * 4	 01 01 07 08
  // unitised hauler empty
 2317 Y:\Documents\OTTD graphics\HEQS_build\Full HEQS\sprites\mining_trucks/unitised_mining_truck.pcx 34 10 01 24 12 -5 -15
 2318 Y:\Documents\OTTD graphics\HEQS_build\Full HEQS\sprites\mining_trucks/unitised_mining_truck.pcx 66 10 01 22 30 -17 -10
 2319 Y:\Documents\OTTD graphics\HEQS_build\Full HEQS\sprites\mining_trucks/unitised_mining_truck.pcx 98 10 01 16 36 -14 -9
 2320 Y:\Documents\OTTD graphics\HEQS_build\Full HEQS\sprites\mining_trucks/unitised_mining_truck.pcx 146 10 01 22 30 -10 -10
 2321 Y:\Documents\OTTD graphics\HEQS_build\Full HEQS\sprites\mining_trucks/unitised_mining_truck.pcx 178 10 01 24 12 -5 -13
 2322 Y:\Documents\OTTD graphics\HEQS_build\Full HEQS\sprites\mining_trucks/unitised_mining_truck.pcx 210 10 01 22 30 -18 -11
 2323 Y:\Documents\OTTD graphics\HEQS_build\Full HEQS\sprites\mining_trucks/unitised_mining_truck.pcx 242 10 01 16 36 -14 -10
 2324 Y:\Documents\OTTD graphics\HEQS_build\Full HEQS\sprites\mining_trucks/unitised_mining_truck.pcx 290 10 01 22 30 -9 -11
  // unitised hauler coal
 2325 Y:\Documents\OTTD graphics\HEQS_build\Full HEQS\sprites\mining_trucks/unitised_mining_truck_coal.pcx 34 10 01 24 12 -5 -15
 2326 Y:\Documents\OTTD graphics\HEQS_build\Full HEQS\sprites\mining_trucks/unitised_mining_truck_coal.pcx 66 10 01 22 30 -17 -10
 2327 Y:\Documents\OTTD graphics\HEQS_build\Full HEQS\sprites\mining_trucks/unitised_mining_truck_coal.pcx 98 10 01 16 36 -14 -9
 2328 Y:\Documents\OTTD graphics\HEQS_build\Full HEQS\sprites\mining_trucks/unitised_mining_truck_coal.pcx 146 10 01 22 30 -10 -10
 2329 Y:\Documents\OTTD graphics\HEQS_build\Full HEQS\sprites\mining_trucks/unitised_mining_truck_coal.pcx 178 10 01 24 12 -5 -13
 2330 Y:\Documents\OTTD graphics\HEQS_build\Full HEQS\sprites\mining_trucks/unitised_mining_truck_coal.pcx 210 10 01 22 30 -18 -11
 2331 Y:\Documents\OTTD graphics\HEQS_build\Full HEQS\sprites\mining_trucks/unitised_mining_truck_coal.pcx 242 10 01 16 36 -14 -10
 2332 Y:\Documents\OTTD graphics\HEQS_build\Full HEQS\sprites\mining_trucks/unitised_mining_truck_coal.pcx 290 10 01 22 30 -9 -11
  // unitised hauler iron 
 2333 Y:\Documents\OTTD graphics\HEQS_build\Full HEQS\sprites\mining_trucks/unitised_mining_truck_iron.pcx 34 10 01 24 12 -5 -15
 2334 Y:\Documents\OTTD graphics\HEQS_build\Full HEQS\sprites\mining_trucks/unitised_mining_truck_iron.pcx 66 10 01 22 30 -17 -10
 2335 Y:\Documents\OTTD graphics\HEQS_build\Full HEQS\sprites\mining_trucks/unitised_mining_truck_iron.pcx 98 10 01 16 36 -14 -9
 2336 Y:\Documents\OTTD graphics\HEQS_build\Full HEQS\sprites\mining_trucks/unitised_mining_truck_iron.pcx 146 10 01 22 30 -10 -10
 2337 Y:\Documents\OTTD graphics\HEQS_build\Full HEQS\sprites\mining_trucks/unitised_mining_truck_iron.pcx 178 10 01 24 12 -5 -13
 2338 Y:\Documents\OTTD graphics\HEQS_build\Full HEQS\sprites\mining_trucks/unitised_mining_truck_iron.pcx 210 10 01 22 30 -18 -11
 2339 Y:\Documents\OTTD graphics\HEQS_build\Full HEQS\sprites\mining_trucks/unitised_mining_truck_iron.pcx 242 10 01 16 36 -14 -10
 2340 Y:\Documents\OTTD graphics\HEQS_build\Full HEQS\sprites\mining_trucks/unitised_mining_truck_iron.pcx 290 10 01 22 30 -9 -11
  // unitised hauler brown
 2341 Y:\Documents\OTTD graphics\HEQS_build\Full HEQS\sprites\mining_trucks/unitised_mining_truck_brown.pcx 34 10 01 24 12 -5 -15
 2342 Y:\Documents\OTTD graphics\HEQS_build\Full HEQS\sprites\mining_trucks/unitised_mining_truck_brown.pcx 66 10 01 22 30 -17 -10
 2343 Y:\Documents\OTTD graphics\HEQS_build\Full HEQS\sprites\mining_trucks/unitised_mining_truck_brown.pcx 98 10 01 16 36 -14 -9
 2344 Y:\Documents\OTTD graphics\HEQS_build\Full HEQS\sprites\mining_trucks/unitised_mining_truck_brown.pcx 146 10 01 22 30 -10 -10
 2345 Y:\Documents\OTTD graphics\HEQS_build\Full HEQS\sprites\mining_trucks/unitised_mining_truck_brown.pcx 178 10 01 24 12 -5 -13
 2346 Y:\Documents\OTTD graphics\HEQS_build\Full HEQS\sprites\mining_trucks/unitised_mining_truck_brown.pcx 210 10 01 22 30 -18 -11
 2347 Y:\Documents\OTTD graphics\HEQS_build\Full HEQS\sprites\mining_trucks/unitised_mining_truck_brown.pcx 242 10 01 16 36 -14 -10
 2348 Y:\Documents\OTTD graphics\HEQS_build\Full HEQS\sprites\mining_trucks/unitised_mining_truck_brown.pcx 290 10 01 22 30 -9 -11
  // unitised hauler white 
 2349 Y:\Documents\OTTD graphics\HEQS_build\Full HEQS\sprites\mining_trucks/unitised_mining_truck_white.pcx 34 10 01 24 12 -5 -15
 2350 Y:\Documents\OTTD graphics\HEQS_build\Full HEQS\sprites\mining_trucks/unitised_mining_truck_white.pcx 66 10 01 22 30 -17 -10
 2351 Y:\Documents\OTTD graphics\HEQS_build\Full HEQS\sprites\mining_trucks/unitised_mining_truck_white.pcx 98 10 01 16 36 -14 -9
 2352 Y:\Documents\OTTD graphics\HEQS_build\Full HEQS\sprites\mining_trucks/unitised_mining_truck_white.pcx 146 10 01 22 30 -10 -10
 2353 Y:\Documents\OTTD graphics\HEQS_build\Full HEQS\sprites\mining_trucks/unitised_mining_truck_white.pcx 178 10 01 24 12 -5 -13
 2354 Y:\Documents\OTTD graphics\HEQS_build\Full HEQS\sprites\mining_trucks/unitised_mining_truck_white.pcx 210 10 01 22 30 -18 -11
 2355 Y:\Documents\OTTD graphics\HEQS_build\Full HEQS\sprites\mining_trucks/unitised_mining_truck_white.pcx 242 10 01 16 36 -14 -10
 2356 Y:\Documents\OTTD graphics\HEQS_build\Full HEQS\sprites\mining_trucks/unitised_mining_truck_white.pcx 290 10 01 22 30 -9 -11
  // unitised hauler red
 2357 Y:\Documents\OTTD graphics\HEQS_build\Full HEQS\sprites\mining_trucks/unitised_mining_truck_red.pcx 34 10 01 24 12 -5 -15
 2358 Y:\Documents\OTTD graphics\HEQS_build\Full HEQS\sprites\mining_trucks/unitised_mining_truck_red.pcx 66 10 01 22 30 -17 -10
 2359 Y:\Documents\OTTD graphics\HEQS_build\Full HEQS\sprites\mining_trucks/unitised_mining_truck_red.pcx 98 10 01 16 36 -14 -9
 2360 Y:\Documents\OTTD graphics\HEQS_build\Full HEQS\sprites\mining_trucks/unitised_mining_truck_red.pcx 146 10 01 22 30 -10 -10
 2361 Y:\Documents\OTTD graphics\HEQS_build\Full HEQS\sprites\mining_trucks/unitised_mining_truck_red.pcx 178 10 01 24 12 -5 -13
 2362 Y:\Documents\OTTD graphics\HEQS_build\Full HEQS\sprites\mining_trucks/unitised_mining_truck_red.pcx 210 10 01 22 30 -18 -11
 2363 Y:\Documents\OTTD graphics\HEQS_build\Full HEQS\sprites\mining_trucks/unitised_mining_truck_red.pcx 242 10 01 16 36 -14 -10
 2364 Y:\Documents\OTTD graphics\HEQS_build\Full HEQS\sprites\mining_trucks/unitised_mining_truck_red.pcx 290 10 01 22 30 -9 -11
  // unitised hauler grey
 2365 Y:\Documents\OTTD graphics\HEQS_build\Full HEQS\sprites\mining_trucks/unitised_mining_truck_grey.pcx 34 10 01 24 12 -5 -15
 2366 Y:\Documents\OTTD graphics\HEQS_build\Full HEQS\sprites\mining_trucks/unitised_mining_truck_grey.pcx 66 10 01 22 30 -17 -10
 2367 Y:\Documents\OTTD graphics\HEQS_build\Full HEQS\sprites\mining_trucks/unitised_mining_truck_grey.pcx 98 10 01 16 36 -14 -9
 2368 Y:\Documents\OTTD graphics\HEQS_build\Full HEQS\sprites\mining_trucks/unitised_mining_truck_grey.pcx 146 10 01 22 30 -10 -10
 2369 Y:\Documents\OTTD graphics\HEQS_build\Full HEQS\sprites\mining_trucks/unitised_mining_truck_grey.pcx 178 10 01 24 12 -5 -13
 2370 Y:\Documents\OTTD graphics\HEQS_build\Full HEQS\sprites\mining_trucks/unitised_mining_truck_grey.pcx 210 10 01 22 30 -18 -11
 2371 Y:\Documents\OTTD graphics\HEQS_build\Full HEQS\sprites\mining_trucks/unitised_mining_truck_grey.pcx 242 10 01 16 36 -14 -10
 2372 Y:\Documents\OTTD graphics\HEQS_build\Full HEQS\sprites\mining_trucks/unitised_mining_truck_grey.pcx 290 10 01 22 30 -9 -11
 2373 * 13	 02 01 A1 02 02 00 00 01 00 00 00 01 00
 2374 * 13	 02 01 A2 02 02 00 00 02 00 00 00 02 00
 2375 * 13	 02 01 A3 02 02 00 00 03 00 00 00 03 00
 2376 * 13	 02 01 A4 02 02 00 00 04 00 00 00 04 00
 2377 * 13	 02 01 A5 02 02 00 00 05 00 00 00 05 00
 2378 * 13	 02 01 A6 02 02 00 00 06 00 00 00 06 00
 2379 * 4	 01 01 01 04
 2380 * 1	 00
 2381 * 1	 00
 2382 Y:\Documents\OTTD graphics\HEQS_build\Full HEQS\sprites\mining_trucks/unitised_mining_truck.pcx 370 14 01 12 36 -14 -6
 2383 * 1	 00
 2384 * 9	 02 01 AF 01 01 00 00 00 00
 2385 * 25	 03 01 01 D7 // Action 3 
   06 // number of cargo types
   01 A1 00
   08 A2 00
   0E A3 00
   11 A4 00
   17 A5 00
   FF AF 00 // buy menu sprites
   A6 00 // default sprites
  // --------------------------- end of Dump trucks / Mining Haulers --------------------- //

  // --------------------------- Off-Highway Trucks --------------------- //

  // Cascade Off-Highway Truck  90t		1960-1982		30mph
 2386 * 67	 00 01 19 01 23
    00 \w1-1-1920  // intro date
    02 20     // reliability
    03 19     // vehicle life
    04 19     // class life
    06 00     // climate  !! set to 00 to hide this vehicle until finished
    07 05     // load amount
    08 \b96     // speed in mph * 3.2
    09 50     // running cost factor
    0A 48 4C 00 00 13 28 14 C8        // running cost base
    0E FF     // sprite ID
    0F 00     // capacity
    10 FF     // cargo type 
    11 5D     // cost factor
    12 19     // sound effect
    15 \b24     // speed in mph * 0.8
    16 40 00 00 28     // Bit mask of cargo types available for refitting
    // flips 1D / 1E values: excludes grain, wheat, maize
    17 16     // Callback flags bit mask
    1A 00     // Refit cost, using 25% of the purchase price cost base
    1B 00     // Retire vehicle early, this many years before the end of phase 2
    1C 02     // Miscellaneous vehicle flags
    1D 10 00          // Refittable cargo classes
    1E EF 03          // Non-refittable cargo classes
    1F 72 EC 0A 00    // Long format introduction date
 2387 * 31	 04 01 7F 01 23 "Cascade Off-Highway Truck" 00
 2388 * 4	 01 01 01 08
  // Cascade off-highway truck empty
 2389 Y:\Documents\OTTD graphics\HEQS_build\Full HEQS\sprites\off_highway_trucks/1960_truck_3_axle.pcx 34 10 01 24 12 -5 -18
 2390 Y:\Documents\OTTD graphics\HEQS_build\Full HEQS\sprites\off_highway_trucks/1960_truck_3_axle.pcx 66 10 09 20 26 -17 -8
 2391 Y:\Documents\OTTD graphics\HEQS_build\Full HEQS\sprites\off_highway_trucks/1960_truck_3_axle.pcx 98 10 01 16 36 -10 -10
 2392 Y:\Documents\OTTD graphics\HEQS_build\Full HEQS\sprites\off_highway_trucks/1960_truck_3_axle.pcx 146 10 09 20 26 -11 -9
 2393 Y:\Documents\OTTD graphics\HEQS_build\Full HEQS\sprites\off_highway_trucks/1960_truck_3_axle.pcx 178 10 01 24 12 -5 -16
 2394 Y:\Documents\OTTD graphics\HEQS_build\Full HEQS\sprites\off_highway_trucks/1960_truck_3_axle.pcx 210 10 09 20 26 -16 -9
 2395 Y:\Documents\OTTD graphics\HEQS_build\Full HEQS\sprites\off_highway_trucks/1960_truck_3_axle.pcx 242 10 01 16 36 -18 -10
 2396 Y:\Documents\OTTD graphics\HEQS_build\Full HEQS\sprites\off_highway_trucks/1960_truck_3_axle.pcx 290 10 09 20 26 -8 -11
 2397 * 9	 02 01 A1 01 01 00 00 00 00 //normal action2 defining graphics with no loading/loaded stages
 2398 * 4	 01 01 01 04
 2399 * 1	 00
 2400 * 1	 00
 2401 Y:\Documents\OTTD graphics\HEQS_build\Full HEQS\sprites\off_highway_trucks/1960_truck_3_axle.pcx 242 10 01 16 36 -18 -8
 2402 * 1	 00
 2403 * 14	 02 01 B0 //ID B0
               81 10 00 FF //check byte value of variable 10 (no bit shift, FF andmask)
               01 //check one ranges
               06 80 01 01 //give callback result
               FF FF //otherwise end the callback chain
 2404 * 14	 02 01 B1 //ID B1
               81 0C 00 FF //check byte value of variable 81 (no bit shift, FF andmask)
               01 //check one range
               B0 00 16 16 //go to ID B0 for value 16 (ie. go to the articulated vehicle building instructions)
               A1 00 //otherwise go to ID A1 (ie. apply vehicle graphics)
 2405 * 7	 03   // Action 3
    01  // RV 
    01  // Number of vehicles this action associate graphics with 
    23  // Vehicle ID
    00  // Number of different cargo types to support  
    B1 00   // Action 2 ID above  
// --------------------------- end of Off-Highway Trucks --------------------- //
//!!Warning (97): Set 00 defined by the previous Action 1 (sprite 2398) has not been used.
//!!For feature 1 the following cargoIDs have not been used since their most recent definition:
//!!06 (last defined at sprite 1739)
//!!0C (last defined at sprite 419)
//!!0D (last defined at sprite 420)
//!!0F (last defined at sprite 608)
//!!17 (last defined at sprite 1741)
//!!18 (last defined at sprite 256)
//!!19 (last defined at sprite 257)
//!!26 (last defined at sprite 1850)
//!!2C (last defined at sprite 530)
//!!2D (last defined at sprite 531)
//!!2F (last defined at sprite 685)
//!!37 (last defined at sprite 1852)
