// Automatically generated by GRFCODEC. Do not modify!
// (Info version 7)
// Format: spritenum pcxfile xpos ypos compression ysize xsize xrel yrel
    0 * 4	 89 09 00 00
//!!Warning (147): Offset 6: Insufficient stack data for control character 7B.
    1 * 128	 08 06 "AP" 12 01 "{{GRF_TITLE}}" 00 "Heavy equipment Set"
	 "in dual company colours."
	 "Brought to you by"
	 "andythenorth and Richard Wheeler (Zephyris)"
	 "2008" 00

    2 * 134	 00 08 01 20 00 09 // Cargo translation table
      "PASS" "COAL" "MAIL" "OIL_"     // 00 - 03, 01 - 08
      "LVST" "GOOD" "GRAI" "WOOD"     // 04 - 07, 10 - 80
      "IORE" "STEL" "VALU" "PAPR"     // 08 - 0B, 01^ - 08^
      "FOOD" "FRUT" "CORE" "WATR"     // 0C - 0F, 10^ - 80^
      "RUBR" "___A" "___B" "___C"     // 10 - 13, 01^^ - 08^^
      "___D" "___E" "___F" "___G"     // 14 - 17, 10^^ - 80^^
      "___H" "___I" "___J" "WHEA"     // 18 - 1B, 01^^^ - 08^^^
      "GOLD" "MAIZ" "TWOD" "DIAM"     // 1C - 1F, 10^^^ - 80^^^

   // ----------- Drawbars for Trailers -------------//

   // Drawbar
    3 * 67	 00 01 19 01 05 // Action 0
      00 00 00  // intro date
      02 20     // reliability
      03 19     // vehicle life
      04 23     // class life
      06 00     // climate
      07 05     // load amount
      08 E0     // speed in mph * 3.2
      09 08     // running cost factor
      0A 48 4C 00 00 13 00 14 20 // running cost base
      0E FF     // sprite ID
      0F 00     // capacity
      10 FF     // cargo type
      11 00     // cost factor
      12 00     // sound effect
      15 38     // speed in mph * 0.8
      16 00 00 00 00    // Bit mask of cargo types available for refitting
      17 02     // Callback flags bit mask
      1A 00     // Refit cost, using 25% of the purchase price cost base
      1B 00     // Retire vehicle early, this many years before the end of phase 2
      1C 02     // Miscellaneous vehicle flags     
      1D FF 03     // Refittable cargo classes 
      1E 01 00     // Non-refittable cargo classes
      1F 60 B3 0A 00   // Long format introduction date     
    4 * 28	 04 01 7F 01 05 "[Drawbar for Trailers]" 00
    5 * 4	 01 01 01 08
    6 sprites/drawbar.pcx 34 10 01 24 12 -5 -16
    7 sprites/drawbar.pcx 66 10 09 20 26 -12 -11
    8 sprites/drawbar.pcx 98 10 01 16 36 -18 -8
    9 sprites/drawbar.pcx 146 10 09 20 26 -4 -5
   10 sprites/drawbar.pcx 178 10 01 24 12 -8 -8
   11 sprites/drawbar.pcx 210 10 09 20 26 -26 -4
   12 sprites/drawbar.pcx 242 10 01 16 36 -22 -8
   13 sprites/drawbar.pcx 290 10 09 20 26 -10 -10
   14 * 9	 02 01 BB   01 01   00 00    00 00
   15 * 14	 02 01 AA  // handle callbacks
                 81 0C 00 FF // check variable 0C
                 01 // range
                  05 80 11 11 // vehicle length callback
                 BB 00
   16 * 7	 03 01 01 05 // Action 3
      00  // Number of different cargo types to support  
      AA 00 // default cargo

   // ----------------- end trailer drawbars -------------------//


    // ------------ Medium Trailers ------------------ //

   // Medium Trailers

   17 * 67	 00 01 19 01 00
      00 00 00  // intro date
      02 20     // reliability
      03 19     // vehicle life
      04 23     // class life
      06 00     // climate
      07 05     // load amount
      08 E0     // speed in mph * 3.2
      09 08     // running cost factor
      0A 48 4C 00 00 13 00 14 20    // running cost base
      0E FF     // sprite ID
      0F \b19     // capacity
      10 06     // cargo type
      11 00     // cost factor
      12 00     // sound effect
      15 38     // speed in mph * 0.8
      16 00 00 00 00    // Bit mask of cargo types available for refitting
      17 30     // Callback flags bit mask
      1A 00     // Refit cost, using 25% of the purchase price cost base
      1B 00     // Retire vehicle early, this many years before the end of phase 2
      1C 02     // Miscellaneous vehicle flags 
      1D FF 03      // Refittable cargo classes
      1E 01 00      // Non-refittable cargo classes
      1F 60 B3 0A 00    // Long format introduction date     
   18 * 30	 04 01 7F 01 00 "[Generic Medium Trailer]" 00
// define additional text suffixes
   19 * 28	 04 00 81 02 00 D0
            		" (refit 1)" 00	//
               	" (refit 2)" 00	//
   // Medium Goods Trailer
   20 * 4	 01 01 01 08
   // Medium box trailer
   21 sprites/standard_trailers/medium_trailer_tandem.pcx 34 570 01 24 12 -3 -10
   22 sprites/standard_trailers/medium_trailer_tandem.pcx 66 570 01 20 26 -11 -9
   23 sprites/standard_trailers/medium_trailer_tandem.pcx 98 570 01 16 36 -14 -6
   24 sprites/standard_trailers/medium_trailer_tandem.pcx 146 570 01 20 26 -9 -7
   25 sprites/standard_trailers/medium_trailer_tandem.pcx 178 570 01 24 12 -9 -16
   26 sprites/standard_trailers/medium_trailer_tandem.pcx 210 570 01 20 26 -17 -7
   27 sprites/standard_trailers/medium_trailer_tandem.pcx 242 570 01 16 36 -30 -8
   28 sprites/standard_trailers/medium_trailer_tandem.pcx 290 570 01 20 26 -13 -10
   29 * 9	 02 01 05   01 01   00 00    00 00 // box
   // Medium end dump trailer - empty
   30 * 4	 01 01 0D 08
   31 sprites/standard_trailers/medium_trailer_tandem.pcx 34 50 01 24 12 -3 -10
   32 sprites/standard_trailers/medium_trailer_tandem.pcx 66 50 09 20 26 -11 -9
   33 sprites/standard_trailers/medium_trailer_tandem.pcx 98 50 01 16 36 -14 -6
   34 sprites/standard_trailers/medium_trailer_tandem.pcx 146 50 09 20 26 -9 -7
   35 sprites/standard_trailers/medium_trailer_tandem.pcx 178 50 01 24 12 -9 -16
   36 sprites/standard_trailers/medium_trailer_tandem.pcx 210 50 09 20 26 -17 -7
   37 sprites/standard_trailers/medium_trailer_tandem.pcx 242 50 01 16 36 -30 -8
   38 sprites/standard_trailers/medium_trailer_tandem.pcx 290 50 09 20 26 -13 -10
   // Medium end dump - iron ore, loading  !! this isn't iron ore??
   39 sprites/standard_trailers/medium_trailer_tandem.pcx 34 490 01 24 12 -3 -10
   40 sprites/standard_trailers/medium_trailer_tandem.pcx 66 490 09 20 20 -11 -9
   41 sprites/standard_trailers/medium_trailer_tandem.pcx 98 490 01 16 36 -14 -6
   42 sprites/standard_trailers/medium_trailer_tandem.pcx 146 490 09 20 26 -9 -7
   43 sprites/standard_trailers/medium_trailer_tandem.pcx 178 490 01 24 12 -9 -16
   44 sprites/standard_trailers/medium_trailer_tandem.pcx 210 490 09 20 26 -17 -7
   45 sprites/standard_trailers/medium_trailer_tandem.pcx 242 490 01 16 36 -30 -8
   46 sprites/standard_trailers/medium_trailer_tandem.pcx 290 490 09 20 26 -13 -10
   // Medium end dump - iron ore, loaded  !! this isn't iron ore??
   47 sprites/standard_trailers/medium_trailer_tandem.pcx 34 530 01 24 12 -3 -10
   48 sprites/standard_trailers/medium_trailer_tandem.pcx 66 530 09 20 20 -11 -9
   49 sprites/standard_trailers/medium_trailer_tandem.pcx 98 530 01 16 36 -14 -6
   50 sprites/standard_trailers/medium_trailer_tandem.pcx 146 530 09 20 26 -9 -7
   51 sprites/standard_trailers/medium_trailer_tandem.pcx 178 530 01 24 12 -9 -16
   52 sprites/standard_trailers/medium_trailer_tandem.pcx 210 530 09 20 26 -17 -7
   53 sprites/standard_trailers/medium_trailer_tandem.pcx 242 530 01 16 36 -30 -8
   54 sprites/standard_trailers/medium_trailer_tandem.pcx 290 530 09 20 26 -13 -10
   // Medium end dump - coal, loading
   55 sprites/standard_trailers/medium_trailer_tandem.pcx 34 170 01 24 12 -3 -10
   56 sprites/standard_trailers/medium_trailer_tandem.pcx 66 170 09 20 26 -11 -9
   57 sprites/standard_trailers/medium_trailer_tandem.pcx 98 170 01 16 36 -14 -6
   58 sprites/standard_trailers/medium_trailer_tandem.pcx 146 170 09 20 26 -9 -7
   59 sprites/standard_trailers/medium_trailer_tandem.pcx 178 170 01 24 12 -9 -16
   60 sprites/standard_trailers/medium_trailer_tandem.pcx 210 170 09 20 26 -17 -7
   61 sprites/standard_trailers/medium_trailer_tandem.pcx 242 170 01 16 36 -30 -8
   62 sprites/standard_trailers/medium_trailer_tandem.pcx 290 170 09 20 26 -13 -10
   // Medium end dump - coal, loaded
   63 sprites/standard_trailers/medium_trailer_tandem.pcx 34 210 01 24 12 -3 -10
   64 sprites/standard_trailers/medium_trailer_tandem.pcx 66 210 09 20 26 -11 -9
   65 sprites/standard_trailers/medium_trailer_tandem.pcx 98 210 01 16 36 -14 -6
   66 sprites/standard_trailers/medium_trailer_tandem.pcx 146 210 09 20 26 -9 -7
   67 sprites/standard_trailers/medium_trailer_tandem.pcx 178 210 01 24 12 -9 -16
   68 sprites/standard_trailers/medium_trailer_tandem.pcx 210 210 09 20 26 -17 -7
   69 sprites/standard_trailers/medium_trailer_tandem.pcx 242 210 01 16 36 -30 -8
   70 sprites/standard_trailers/medium_trailer_tandem.pcx 290 210 09 20 26 -13 -10
   // Medium end dump - grain, loading
   71 sprites/standard_trailers/medium_trailer_tandem.pcx 34 250 01 24 12 -3 -10
   72 sprites/standard_trailers/medium_trailer_tandem.pcx 66 250 09 20 26 -11 -9
   73 sprites/standard_trailers/medium_trailer_tandem.pcx 98 250 01 16 36 -14 -6
   74 sprites/standard_trailers/medium_trailer_tandem.pcx 146 250 09 20 26 -9 -7
   75 sprites/standard_trailers/medium_trailer_tandem.pcx 178 250 01 24 12 -9 -16
   76 sprites/standard_trailers/medium_trailer_tandem.pcx 210 250 09 20 26 -17 -7
   77 sprites/standard_trailers/medium_trailer_tandem.pcx 242 250 01 16 36 -30 -8
   78 sprites/standard_trailers/medium_trailer_tandem.pcx 290 250 09 20 26 -13 -10
  // Medium end dump - grain, loaded
   79 sprites/standard_trailers/medium_trailer_tandem.pcx 34 290 01 24 12 -3 -10
   80 sprites/standard_trailers/medium_trailer_tandem.pcx 66 290 09 20 26 -11 -9
   81 sprites/standard_trailers/medium_trailer_tandem.pcx 98 290 01 16 36 -14 -6
   82 sprites/standard_trailers/medium_trailer_tandem.pcx 146 290 09 20 26 -9 -7
   83 sprites/standard_trailers/medium_trailer_tandem.pcx 178 290 01 24 12 -9 -16
   84 sprites/standard_trailers/medium_trailer_tandem.pcx 210 290 09 20 26 -17 -7
   85 sprites/standard_trailers/medium_trailer_tandem.pcx 242 290 01 16 36 -30 -8
   86 sprites/standard_trailers/medium_trailer_tandem.pcx 290 290 09 20 26 -13 -10
  // Medium end dump - clay, loading
   87 sprites/standard_trailers/medium_trailer_tandem.pcx 34 410 01 24 12 -3 -10
   88 sprites/standard_trailers/medium_trailer_tandem.pcx 66 410 09 20 26 -11 -9
   89 sprites/standard_trailers/medium_trailer_tandem.pcx 98 410 01 16 36 -14 -6
   90 sprites/standard_trailers/medium_trailer_tandem.pcx 146 410 09 20 26 -9 -7
   91 sprites/standard_trailers/medium_trailer_tandem.pcx 178 410 01 24 12 -9 -16
   92 sprites/standard_trailers/medium_trailer_tandem.pcx 210 410 09 20 26 -17 -7
   93 sprites/standard_trailers/medium_trailer_tandem.pcx 242 410 01 16 36 -30 -8
   94 sprites/standard_trailers/medium_trailer_tandem.pcx 290 410 09 20 26 -13 -10
  // Medium end dump - clay, loaded
   95 sprites/standard_trailers/medium_trailer_tandem.pcx 34 450 01 24 12 -3 -10
   96 sprites/standard_trailers/medium_trailer_tandem.pcx 66 450 09 20 26 -11 -9
   97 sprites/standard_trailers/medium_trailer_tandem.pcx 98 450 01 16 36 -14 -6
   98 sprites/standard_trailers/medium_trailer_tandem.pcx 146 450 09 20 26 -9 -7
   99 sprites/standard_trailers/medium_trailer_tandem.pcx 178 450 01 24 12 -9 -16
  100 sprites/standard_trailers/medium_trailer_tandem.pcx 210 450 09 20 26 -17 -7
  101 sprites/standard_trailers/medium_trailer_tandem.pcx 242 450 01 16 36 -30 -8
  102 sprites/standard_trailers/medium_trailer_tandem.pcx 290 450 09 20 26 -13 -10
  // Medium end dump - copper ore, loading
  103 sprites/standard_trailers/medium_trailer_tandem.pcx 34 330 01 24 12 -3 -10
  104 sprites/standard_trailers/medium_trailer_tandem.pcx 66 330 09 20 26 -11 -9
  105 sprites/standard_trailers/medium_trailer_tandem.pcx 98 330 01 16 36 -14 -6
  106 sprites/standard_trailers/medium_trailer_tandem.pcx 146 330 09 20 26 -9 -7
  107 sprites/standard_trailers/medium_trailer_tandem.pcx 178 330 01 24 12 -9 -16
  108 sprites/standard_trailers/medium_trailer_tandem.pcx 210 330 09 20 26 -17 -7
  109 sprites/standard_trailers/medium_trailer_tandem.pcx 242 330 01 16 36 -30 -8
  110 sprites/standard_trailers/medium_trailer_tandem.pcx 290 330 09 20 26 -13 -10
  // Medium end dump - copper ore, loaded
  111 sprites/standard_trailers/medium_trailer_tandem.pcx 34 370 01 24 12 -3 -10
  112 sprites/standard_trailers/medium_trailer_tandem.pcx 66 370 09 20 26 -11 -9
  113 sprites/standard_trailers/medium_trailer_tandem.pcx 98 370 01 16 36 -14 -6
  114 sprites/standard_trailers/medium_trailer_tandem.pcx 146 370 09 20 26 -9 -7
  115 sprites/standard_trailers/medium_trailer_tandem.pcx 178 370 01 24 12 -9 -16
  116 sprites/standard_trailers/medium_trailer_tandem.pcx 210 370 09 20 26 -17 -7
  117 sprites/standard_trailers/medium_trailer_tandem.pcx 242 370 01 16 36 -30 -8
  118 sprites/standard_trailers/medium_trailer_tandem.pcx 290 370 09 20 26 -13 -10
  // Medium end dump - gravel, loading
  119 sprites/standard_trailers/medium_trailer_tandem.pcx 34 90 01 24 12 -3 -10
  120 sprites/standard_trailers/medium_trailer_tandem.pcx 66 90 09 20 26 -11 -9
  121 sprites/standard_trailers/medium_trailer_tandem.pcx 98 90 01 16 36 -14 -6
  122 sprites/standard_trailers/medium_trailer_tandem.pcx 146 90 09 20 26 -9 -7
  123 sprites/standard_trailers/medium_trailer_tandem.pcx 178 90 01 24 12 -9 -16
  124 sprites/standard_trailers/medium_trailer_tandem.pcx 210 90 09 20 26 -17 -7
  125 sprites/standard_trailers/medium_trailer_tandem.pcx 242 90 01 16 36 -30 -8
  126 sprites/standard_trailers/medium_trailer_tandem.pcx 290 90 09 20 26 -13 -10
  // Medium end dump - gravel, loaded
  127 sprites/standard_trailers/medium_trailer_tandem.pcx 34 130 01 24 12 -3 -10
  128 sprites/standard_trailers/medium_trailer_tandem.pcx 66 130 09 20 26 -11 -9
  129 sprites/standard_trailers/medium_trailer_tandem.pcx 98 130 01 16 36 -14 -6
  130 sprites/standard_trailers/medium_trailer_tandem.pcx 146 130 09 20 26 -9 -7
  131 sprites/standard_trailers/medium_trailer_tandem.pcx 178 130 01 24 12 -9 -16
  132 sprites/standard_trailers/medium_trailer_tandem.pcx 210 130 09 20 26 -17 -7
  133 sprites/standard_trailers/medium_trailer_tandem.pcx 242 130 01 16 36 -30 -8
  134 sprites/standard_trailers/medium_trailer_tandem.pcx 290 130 09 20 26 -13 -10
  135 * 17	 02 01 08  03 03    00 00  01 00  02 00    00 00  01 00  02 00 // iron ore
  136 * 17	 02 01 01  03 03    00 00  03 00  04 00    00 00  03 00  04 00 // coal
  137 * 17	 02 01 06  03 03    00 00  05 00  06 00    00 00  05 00  06 00 // grain
  138 * 17	 02 01 0E  03 03    00 00  07 00  08 00    00 00  07 00  08 00 // brown 
  139 * 17	 02 01 17  03 03    00 00  09 00  0A 00    00 00  09 00  0A 00 // red
  140 * 17	 02 01 11  03 03    00 00  0B 00  0C 00    00 00  0B 00  0C 00 // grey
  // Medium flat trailer / (also stake trailer ??)
  141 * 4	 01 01 0C 08
  // Medium flat trailer - empty
  142 sprites/standard_trailers/medium_trailer_tandem.pcx 34 730 01 24 12 -3 -10
  143 sprites/standard_trailers/medium_trailer_tandem.pcx 66 730 09 20 26 -11 -9
  144 sprites/standard_trailers/medium_trailer_tandem.pcx 98 730 01 16 36 -14 -6
  145 sprites/standard_trailers/medium_trailer_tandem.pcx 146 730 09 20 26 -9 -7
  146 sprites/standard_trailers/medium_trailer_tandem.pcx 178 730 01 24 12 -9 -16
  147 sprites/standard_trailers/medium_trailer_tandem.pcx 210 730 09 20 26 -17 -7
  148 sprites/standard_trailers/medium_trailer_tandem.pcx 242 730 01 16 36 -30 -8
  149 sprites/standard_trailers/medium_trailer_tandem.pcx 290 730 09 20 26 -13 -10
  // Medium flat trailer - steel, loading  
  150 sprites/standard_trailers/medium_trailer_tandem.pcx 34 970 01 24 12 -3 -10
  151 sprites/standard_trailers/medium_trailer_tandem.pcx 66 970 09 20 26 -11 -9
  152 sprites/standard_trailers/medium_trailer_tandem.pcx 98 970 01 16 36 -14 -6
  153 sprites/standard_trailers/medium_trailer_tandem.pcx 146 970 09 20 26 -9 -7
  154 sprites/standard_trailers/medium_trailer_tandem.pcx 178 970 01 24 12 -9 -16
  155 sprites/standard_trailers/medium_trailer_tandem.pcx 210 970 09 20 26 -17 -7
  156 sprites/standard_trailers/medium_trailer_tandem.pcx 242 970 01 16 36 -30 -8
  157 sprites/standard_trailers/medium_trailer_tandem.pcx 290 970 09 20 26 -13 -10
  // Medium flat trailer - steel, loaded  
  158 sprites/standard_trailers/medium_trailer_tandem.pcx 34 970 01 24 12 -3 -10
  159 sprites/standard_trailers/medium_trailer_tandem.pcx 66 970 09 20 26 -11 -9
  160 sprites/standard_trailers/medium_trailer_tandem.pcx 98 970 01 16 36 -14 -6
  161 sprites/standard_trailers/medium_trailer_tandem.pcx 146 970 09 20 26 -9 -7
  162 sprites/standard_trailers/medium_trailer_tandem.pcx 178 970 01 24 12 -9 -16
  163 sprites/standard_trailers/medium_trailer_tandem.pcx 210 970 09 20 26 -17 -7
  164 sprites/standard_trailers/medium_trailer_tandem.pcx 242 970 01 16 36 -30 -8
  165 sprites/standard_trailers/medium_trailer_tandem.pcx 290 970 09 20 26 -13 -10
  // Medium flat trailer - paper, loading  
  166 sprites/standard_trailers/medium_trailer_tandem.pcx 34 1130 01 24 12 -3 -10
  167 sprites/standard_trailers/medium_trailer_tandem.pcx 66 1130 09 20 26 -11 -9
  168 sprites/standard_trailers/medium_trailer_tandem.pcx 98 1130 01 16 36 -14 -6
  169 sprites/standard_trailers/medium_trailer_tandem.pcx 146 1130 09 20 26 -9 -7
  170 sprites/standard_trailers/medium_trailer_tandem.pcx 178 1130 01 24 12 -9 -16
  171 sprites/standard_trailers/medium_trailer_tandem.pcx 210 1130 09 20 26 -17 -7
  172 sprites/standard_trailers/medium_trailer_tandem.pcx 242 1130 01 16 36 -30 -8
  173 sprites/standard_trailers/medium_trailer_tandem.pcx 290 1130 09 20 26 -13 -10
  // Medium flat trailer - paper, loaded  
  174 sprites/standard_trailers/medium_trailer_tandem.pcx 34 1130 01 24 12 -3 -10
  175 sprites/standard_trailers/medium_trailer_tandem.pcx 66 1130 09 20 26 -11 -9
  176 sprites/standard_trailers/medium_trailer_tandem.pcx 98 1130 01 16 36 -14 -6
  177 sprites/standard_trailers/medium_trailer_tandem.pcx 146 1130 09 20 26 -9 -7
  178 sprites/standard_trailers/medium_trailer_tandem.pcx 178 1130 01 24 12 -9 -16
  179 sprites/standard_trailers/medium_trailer_tandem.pcx 210 1130 09 20 26 -17 -7
  180 sprites/standard_trailers/medium_trailer_tandem.pcx 242 1130 01 16 36 -30 -8
  181 sprites/standard_trailers/medium_trailer_tandem.pcx 290 1130 09 20 26 -13 -10
  // Medium stake trailer - empty
  182 sprites/standard_trailers/medium_trailer_tandem.pcx 34 610 01 24 12 -3 -10
  183 sprites/standard_trailers/medium_trailer_tandem.pcx 66 610 09 20 26 -11 -9
  184 sprites/standard_trailers/medium_trailer_tandem.pcx 98 610 01 16 36 -14 -6
  185 sprites/standard_trailers/medium_trailer_tandem.pcx 146 610 09 20 26 -9 -7
  186 sprites/standard_trailers/medium_trailer_tandem.pcx 178 610 01 24 12 -9 -16
  187 sprites/standard_trailers/medium_trailer_tandem.pcx 210 610 09 20 26 -17 -7
  188 sprites/standard_trailers/medium_trailer_tandem.pcx 242 610 01 16 36 -30 -8
  189 sprites/standard_trailers/medium_trailer_tandem.pcx 290 610 09 20 26 -13 -10
  // Medium stake trailer - Wood, loading  
  190 sprites/standard_trailers/medium_trailer_tandem.pcx 34 650 01 24 12 -3 -10
  191 sprites/standard_trailers/medium_trailer_tandem.pcx 66 650 09 20 26 -11 -9
  192 sprites/standard_trailers/medium_trailer_tandem.pcx 98 650 01 16 36 -14 -6
  193 sprites/standard_trailers/medium_trailer_tandem.pcx 146 650 09 20 26 -9 -7
  194 sprites/standard_trailers/medium_trailer_tandem.pcx 178 650 01 24 12 -9 -16
  195 sprites/standard_trailers/medium_trailer_tandem.pcx 210 650 09 20 26 -17 -7
  196 sprites/standard_trailers/medium_trailer_tandem.pcx 242 650 01 16 36 -30 -8
  197 sprites/standard_trailers/medium_trailer_tandem.pcx 290 650 09 20 26 -13 -10
  // Medium stake trailer - Wood, loaded  
  198 sprites/standard_trailers/medium_trailer_tandem.pcx 34 690 01 24 12 -3 -10
  199 sprites/standard_trailers/medium_trailer_tandem.pcx 66 690 09 20 26 -11 -9
  200 sprites/standard_trailers/medium_trailer_tandem.pcx 98 690 01 16 36 -14 -6
  201 sprites/standard_trailers/medium_trailer_tandem.pcx 146 690 09 20 26 -9 -7
  202 sprites/standard_trailers/medium_trailer_tandem.pcx 178 690 01 24 12 -9 -16
  203 sprites/standard_trailers/medium_trailer_tandem.pcx 210 690 09 20 26 -17 -7
  204 sprites/standard_trailers/medium_trailer_tandem.pcx 242 690 01 16 36 -30 -8
  205 sprites/standard_trailers/medium_trailer_tandem.pcx 290 690 09 20 26 -13 -10
 // Medium flat trailer - livestock, loading  
  206 sprites/standard_trailers/medium_trailer_tandem.pcx 34 810 01 24 12 -3 -10
  207 sprites/standard_trailers/medium_trailer_tandem.pcx 66 810 09 20 26 -11 -9
  208 sprites/standard_trailers/medium_trailer_tandem.pcx 98 810 01 16 36 -14 -6
  209 sprites/standard_trailers/medium_trailer_tandem.pcx 146 810 09 20 26 -9 -7
  210 sprites/standard_trailers/medium_trailer_tandem.pcx 178 810 01 24 12 -9 -16
  211 sprites/standard_trailers/medium_trailer_tandem.pcx 210 810 09 20 26 -17 -7
  212 sprites/standard_trailers/medium_trailer_tandem.pcx 242 810 01 16 36 -30 -8
  213 sprites/standard_trailers/medium_trailer_tandem.pcx 290 810 09 20 26 -13 -10
 // Medium flat trailer - livestock, loaded
  214 sprites/standard_trailers/medium_trailer_tandem.pcx 34 810 01 24 12 -3 -10
  215 sprites/standard_trailers/medium_trailer_tandem.pcx 66 810 09 20 26 -11 -9
  216 sprites/standard_trailers/medium_trailer_tandem.pcx 98 810 01 16 36 -14 -6
  217 sprites/standard_trailers/medium_trailer_tandem.pcx 146 810 09 20 26 -9 -7
  218 sprites/standard_trailers/medium_trailer_tandem.pcx 178 810 01 24 12 -9 -16
  219 sprites/standard_trailers/medium_trailer_tandem.pcx 210 810 09 20 26 -17 -7
  220 sprites/standard_trailers/medium_trailer_tandem.pcx 242 810 01 16 36 -30 -8
  221 sprites/standard_trailers/medium_trailer_tandem.pcx 290 810 09 20 26 -13 -10
 // Medium flat trailer - copper, loading  
  222 sprites/standard_trailers/medium_trailer_tandem.pcx 34 10 01 24 12 -3 -10
  223 sprites/standard_trailers/medium_trailer_tandem.pcx 66 10 09 20 26 -11 -9
  224 sprites/standard_trailers/medium_trailer_tandem.pcx 98 10 01 16 36 -14 -6
  225 sprites/standard_trailers/medium_trailer_tandem.pcx 146 10 09 20 26 -9 -7
  226 sprites/standard_trailers/medium_trailer_tandem.pcx 178 10 01 24 12 -9 -16
  227 sprites/standard_trailers/medium_trailer_tandem.pcx 210 10 09 20 26 -17 -7
  228 sprites/standard_trailers/medium_trailer_tandem.pcx 242 10 01 16 36 -30 -8
  229 sprites/standard_trailers/medium_trailer_tandem.pcx 290 10 09 20 26 -13 -10
 // Medium flat trailer - copper, loaded  
  230 sprites/standard_trailers/medium_trailer_tandem.pcx 34 10 01 24 12 -3 -10
  231 sprites/standard_trailers/medium_trailer_tandem.pcx 66 10 09 20 26 -11 -9
  232 sprites/standard_trailers/medium_trailer_tandem.pcx 98 10 01 16 36 -14 -6
  233 sprites/standard_trailers/medium_trailer_tandem.pcx 146 10 09 20 26 -9 -7
  234 sprites/standard_trailers/medium_trailer_tandem.pcx 178 10 01 24 12 -9 -16
  235 sprites/standard_trailers/medium_trailer_tandem.pcx 210 10 09 20 26 -17 -7
  236 sprites/standard_trailers/medium_trailer_tandem.pcx 242 10 01 16 36 -30 -8
  237 sprites/standard_trailers/medium_trailer_tandem.pcx 290 10 09 20 26 -13 -10
  238 * 17	 02 01 09  03 03   00 00  01 00  02 00    00 00  01 00  02 00
  239 * 17	 02 01 0B  03 03   00 00  03 00  04 00    00 00  03 00  04 00
  240 * 17	 02 01 07  03 03   05 00  06 00  07 00    05 00  06 00  07 00
  241 * 17	 02 01 04  03 03   00 00  07 00  08 00    00 00  07 00  08 00
  242 * 17	 02 01 18  03 03   00 00  09 00  0A 00    00 00  09 00  0A 00 
  243 * 17	 02 01 19  03 03   00 00  09 00  0B 00    00 00  09 00  0B 00 // copper ? 
  // Medium tank trailer
  244 * 4	 01 01 01 08
  245 sprites/standard_trailers/medium_trailer_tandem.pcx 34 10 01 24 12 -3 -10
  246 sprites/standard_trailers/medium_trailer_tandem.pcx 66 10 09 20 26 -11 -9
  247 sprites/standard_trailers/medium_trailer_tandem.pcx 98 10 01 16 36 -14 -6
  248 sprites/standard_trailers/medium_trailer_tandem.pcx 146 10 09 20 26 -9 -7
  249 sprites/standard_trailers/medium_trailer_tandem.pcx 178 10 01 24 12 -9 -16
  250 sprites/standard_trailers/medium_trailer_tandem.pcx 210 10 09 20 26 -17 -7
  251 sprites/standard_trailers/medium_trailer_tandem.pcx 242 10 01 16 36 -30 -8
  252 sprites/standard_trailers/medium_trailer_tandem.pcx 290 10 09 20 26 -13 -10
  253 * 9	 02 01 03   01 01    00 00    00 00
  254 * 4	 01 01 01 08
  255 sprites/heqs2.pcx 770 424 01 18 8 -3 -10
  256 sprites/heqs2.pcx 2 456 09 16 20 -14 -7
  257 sprites/heqs2.pcx 34 456 01 12 28 -14 -6
  258 sprites/heqs2.pcx 82 456 09 16 20 -6 -8
  259 sprites/heqs2.pcx 114 456 01 18 8 -3 -10
  260 sprites/heqs2.pcx 130 456 09 16 20 -14 -8
  261 sprites/heqs2.pcx 162 456 01 12 28 -14 -6
  262 sprites/heqs2.pcx 210 456 09 16 20 -6 -7
  263 * 9	 02 01 0C   01 01    00 00    00 00
  // Var action 2 ID schema: B = bulk, C = Covered, F = Flat
  264 * 18	 02 01 AC  // text suffixes
                 81 F2 00 FF //
                 02 // range
                  00 80 00 00 // 
                  01 80 01 01 //  
                 FF 80
  // AB, AA contain some code to allow refit to multiple cargos, this is unused until additional sprites are drawn.
//!!Warning (100): Default ID appears earlier in sprite.
//!!Warning (100): Default ID appears earlier in sprite.
  265 * 18	 02 01 AB  // choose sprites according to refit
                 81 F2 00 FF //
                 02 // range
                  05 00 00 00 // 
                  05 00 01 01 // 
                 05 00 // default 
  266 * 14	 02 01 AA  // handle callbacks
                 81 0C 00 FF //
                 01 // range
                  04 80 11 11 // vehicle length CB
                  //AC 00 19 19 // text suffix CB 
                 05 00 // graphics
  267 * 49	 03 01 01 00 // Action 3
    0E // Number of different cargo types to support (!! Hex) 
    01 01 00 // coal
    03 03 00 // oil
    04 04 00 // livestock
    06 06 00 // grain 
    07 07 00 // wood
    08 08 00 // iron ore
	  09 09 00 // steel
	  0B 0B 00 // paper
	  0E 0E 00 // copper ore
	  0F 03 00 // water
	  10 03 00 // rubber
	  1B 06 00 // wheat
	  1D 06 00 // maize
	  1E 07 00 // tropical wood
	  AA 00 // default (box trailer)

   // ------------ end of Medium Trailers ------------------ //

  // -------------- Bulldozer Trailers --------------- //

  // Bulldozer trailer standard
       // Rough order of business here
       // Bulldozer trailers vary capacity depending on date vehicle is built
       // Can't get CB 36 to do that on build, only on refit (oh so close)
       // So instead define multiple vehicles using the same real sprites
       // Only difference is capacity
       // Lead vehicle chooses different trailers depending on date
       // This is inefficient on source code, also on ID use, but we have 255 IDs to play with so should be ok.
     // NOTE: Don't use IDs > 128 for trailers in articulated consists (lead vehicle ID can be > 128)
  268 * 67	 00 01 19 01 6E
      00 00 00  // intro date
      02 20     // reliability
      03 19     // vehicle life
      04 23     // class life
      06 00     // climate
      07 05     // load amount
      08 E0     // speed in mph * 3.2
      09 08     // running cost factor
      0A 48 4C 00 00 13 00 14 20    // running cost base
      0E FF     // sprite ID
      0F \b10     // capacity
      10 06     // cargo type
      11 00     // cost factor
      12 00     // sound effect
      15 38     // speed in mph * 0.8
      16 00 00 00 00    // Bit mask of cargo types available for refitting
      17 30     // Callback flags bit mask
      1A 00     // Refit cost, using 25% of the purchase price cost base
      1B 00     // Retire vehicle early, this many years before the end of phase 2
      1C 02     // Miscellaneous vehicle flags 
      1D FF 03      // Refittable cargo classes
      1E 01 00      // Non-refittable cargo classes
      1F 60 B3 0A 00    // Long format introduction date     
  269 * 67	 00 01 19 01 6F
      00 00 00  // intro date
      02 20     // reliability
      03 19     // vehicle life
      04 23     // class life
      06 00     // climate
      07 05     // load amount
      08 E0     // speed in mph * 3.2
      09 08     // running cost factor
      0A 48 4C 00 00 13 00 14 20    // running cost base
      0E FF     // sprite ID
      0F \b12     // capacity
      10 06     // cargo type
      11 00     // cost factor
      12 00     // sound effect
      15 38     // speed in mph * 0.8
      16 00 00 00 00    // Bit mask of cargo types available for refitting
      17 30     // Callback flags bit mask
      1A 00     // Refit cost, using 25% of the purchase price cost base
      1B 00     // Retire vehicle early, this many years before the end of phase 2
      1C 02     // Miscellaneous vehicle flags 
      1D FF 03      // Refittable cargo classes
      1E 01 00      // Non-refittable cargo classes
      1F 60 B3 0A 00    // Long format introduction date     
  270 * 67	 00 01 19 01 70
      00 00 00  // intro date
      02 20     // reliability
      03 19     // vehicle life
      04 23     // class life
      06 00     // climate
      07 05     // load amount
      08 E0     // speed in mph * 3.2
      09 08     // running cost factor
      0A 48 4C 00 00 13 00 14 20    // running cost base
      0E FF     // sprite ID
      0F \b14     // capacity
      10 06     // cargo type
      11 00     // cost factor
      12 00     // sound effect
      15 38     // speed in mph * 0.8
      16 00 00 00 00    // Bit mask of cargo types available for refitting
      17 30     // Callback flags bit mask
      1A 00     // Refit cost, using 25% of the purchase price cost base
      1B 00     // Retire vehicle early, this many years before the end of phase 2
      1C 02     // Miscellaneous vehicle flags 
      1D FF 03      // Refittable cargo classes
      1E 01 00      // Non-refittable cargo classes
      1F 60 B3 0A 00    // Long format introduction date     
  271 * 67	 00 01 19 01 71
      00 00 00  // intro date
      02 20     // reliability
      03 19     // vehicle life
      04 23     // class life
      06 00     // climate
      07 05     // load amount
      08 E0     // speed in mph * 3.2
      09 08     // running cost factor
      0A 48 4C 00 00 13 00 14 20    // running cost base
      0E FF     // sprite ID
      0F \b16     // capacity
      10 06     // cargo type
      11 00     // cost factor
      12 00     // sound effect
      15 38     // speed in mph * 0.8
      16 00 00 00 00    // Bit mask of cargo types available for refitting
      17 30     // Callback flags bit mask
      1A 00     // Refit cost, using 25% of the purchase price cost base
      1B 00     // Retire vehicle early, this many years before the end of phase 2
      1C 02     // Miscellaneous vehicle flags 
      1D FF 03      // Refittable cargo classes
      1E 01 00      // Non-refittable cargo classes
      1F 60 B3 0A 00    // Long format introduction date     
  272 * 67	 00 01 19 01 72
      00 00 00  // intro date
      02 20     // reliability
      03 19     // vehicle life
      04 23     // class life
      06 00     // climate
      07 05     // load amount
      08 E0     // speed in mph * 3.2
      09 08     // running cost factor
      0A 48 4C 00 00 13 00 14 20    // running cost base
      0E FF     // sprite ID
      0F \b19     // capacity
      10 06     // cargo type
      11 00     // cost factor
      12 00     // sound effect
      15 38     // speed in mph * 0.8
      16 00 00 00 00    // Bit mask of cargo types available for refitting
      17 30     // Callback flags bit mask
      1A 00     // Refit cost, using 25% of the purchase price cost base
      1B 00     // Retire vehicle early, this many years before the end of phase 2
      1C 02     // Miscellaneous vehicle flags 
      1D FF 03      // Refittable cargo classes
      1E 01 00      // Non-refittable cargo classes
      1F 60 B3 0A 00    // Long format introduction date     
  273 * 67	 00 01 19 01 73
      00 00 00  // intro date
      02 20     // reliability
      03 19     // vehicle life
      04 23     // class life
      06 00     // climate
      07 05     // load amount
      08 E0     // speed in mph * 3.2
      09 08     // running cost factor
      0A 48 4C 00 00 13 00 14 20    // running cost base
      0E FF     // sprite ID
      0F \b22     // capacity
      10 06     // cargo type
      11 00     // cost factor
      12 00     // sound effect
      15 38     // speed in mph * 0.8
      16 00 00 00 00    // Bit mask of cargo types available for refitting
      17 30     // Callback flags bit mask
      1A 00     // Refit cost, using 25% of the purchase price cost base
      1B 00     // Retire vehicle early, this many years before the end of phase 2
      1C 02     // Miscellaneous vehicle flags 
      1D FF 03      // Refittable cargo classes
      1E 01 00      // Non-refittable cargo classes
      1F 60 B3 0A 00    // Long format introduction date     
  274 * 42	 04 01 7F 01 70 "[Generic Standard bulldozer Trailer]" 00
  // define additional text suffixes
  275 * 33	 04 00 81 02 00 D0
            		" (Wheeled Trailer)" 00	// D000 = "1st class"
               	" (Sled)" 00	// D001 = "2nd class"
  // Action 2 ID schema: 0 / 1 = wheeled trailer, 2 / 3 = sled
   // Standard bulldozer Goods Trailer
  276 * 4	 01 01 01 08
  277 sprites/standard_trailers/medium_trailer_4_wheel.pcx 34 570 01 24 12 -3 -10
  278 sprites/standard_trailers/medium_trailer_4_wheel.pcx 66 570 01 20 26 -11 -9
  279 sprites/standard_trailers/medium_trailer_4_wheel.pcx 98 570 01 16 36 -15 -7
  280 sprites/standard_trailers/medium_trailer_4_wheel.pcx 146 570 01 20 26 -9 -7
  281 sprites/standard_trailers/medium_trailer_4_wheel.pcx 178 570 01 24 12 -9 -16
  282 sprites/standard_trailers/medium_trailer_4_wheel.pcx 210 570 01 20 26 -17 -7
  283 sprites/standard_trailers/medium_trailer_4_wheel.pcx 242 570 01 16 36 -19 -8
  284 sprites/standard_trailers/medium_trailer_4_wheel.pcx 290 570 01 20 26 -13 -10
  285 * 9	 02 01 05   01 01   00 00    00 00
   // Standard bulldozer Goods Sled
  286 * 4	 01 01 01 08
  287 sprites/standard_trailers/medium_sled.pcx 34 570 01 24 12 -3 -10
  288 sprites/standard_trailers/medium_sled.pcx 66 570 01 20 26 -11 -9
  289 sprites/standard_trailers/medium_sled.pcx 98 570 01 16 36 -15 -7
  290 sprites/standard_trailers/medium_sled.pcx 146 570 01 20 26 -9 -7
  291 sprites/standard_trailers/medium_sled.pcx 178 570 01 24 12 -9 -16
  292 sprites/standard_trailers/medium_sled.pcx 210 570 01 20 26 -17 -7
  293 sprites/standard_trailers/medium_sled.pcx 242 570 01 16 36 -19 -8
  294 sprites/standard_trailers/medium_sled.pcx 290 570 01 20 26 -13 -10
  295 * 9	 02 01 25   01 01   00 00    00 00
   // Standard bulldozer end dump trailer - empty
  296 * 4	 01 01 0D 08
  297 sprites/standard_trailers/medium_trailer_4_wheel.pcx 34 50 01 24 12 -3 -10
  298 sprites/standard_trailers/medium_trailer_4_wheel.pcx 66 50 09 20 26 -11 -9
  299 sprites/standard_trailers/medium_trailer_4_wheel.pcx 98 50 01 16 36 -15 -7
  300 sprites/standard_trailers/medium_trailer_4_wheel.pcx 146 50 09 20 26 -9 -7
  301 sprites/standard_trailers/medium_trailer_4_wheel.pcx 178 50 01 24 12 -9 -16
  302 sprites/standard_trailers/medium_trailer_4_wheel.pcx 210 50 09 20 26 -17 -7
  303 sprites/standard_trailers/medium_trailer_4_wheel.pcx 242 50 01 16 36 -19 -8
  304 sprites/standard_trailers/medium_trailer_4_wheel.pcx 290 50 09 20 26 -13 -10
   // Standard bulldozer end dump - iron ore, loading
  305 sprites/standard_trailers/medium_trailer_4_wheel.pcx 34 490 01 24 12 -3 -10
  306 sprites/standard_trailers/medium_trailer_4_wheel.pcx 66 490 09 20 20 -11 -9
  307 sprites/standard_trailers/medium_trailer_4_wheel.pcx 98 490 01 16 36 -15 -7
  308 sprites/standard_trailers/medium_trailer_4_wheel.pcx 146 490 09 20 26 -9 -7
  309 sprites/standard_trailers/medium_trailer_4_wheel.pcx 178 490 01 24 12 -9 -16
  310 sprites/standard_trailers/medium_trailer_4_wheel.pcx 210 490 09 20 26 -17 -7
  311 sprites/standard_trailers/medium_trailer_4_wheel.pcx 242 490 01 16 36 -19 -8
  312 sprites/standard_trailers/medium_trailer_4_wheel.pcx 290 490 09 20 26 -13 -10
   // Standard bulldozer end dump - iron ore, loaded
  313 sprites/standard_trailers/medium_trailer_4_wheel.pcx 34 530 01 24 12 -3 -10
  314 sprites/standard_trailers/medium_trailer_4_wheel.pcx 66 530 09 20 20 -11 -9
  315 sprites/standard_trailers/medium_trailer_4_wheel.pcx 98 530 01 16 36 -15 -7
  316 sprites/standard_trailers/medium_trailer_4_wheel.pcx 146 530 09 20 26 -9 -7
  317 sprites/standard_trailers/medium_trailer_4_wheel.pcx 178 530 01 24 12 -9 -16
  318 sprites/standard_trailers/medium_trailer_4_wheel.pcx 210 530 09 20 26 -17 -7
  319 sprites/standard_trailers/medium_trailer_4_wheel.pcx 242 530 01 16 36 -19 -8
  320 sprites/standard_trailers/medium_trailer_4_wheel.pcx 290 530 09 20 26 -13 -10
   // Standard bulldozer end dump - coal, loading
  321 sprites/standard_trailers/medium_trailer_4_wheel.pcx 34 170 01 24 12 -3 -10
  322 sprites/standard_trailers/medium_trailer_4_wheel.pcx 66 170 09 20 26 -11 -9
  323 sprites/standard_trailers/medium_trailer_4_wheel.pcx 98 170 01 16 36 -15 -7
  324 sprites/standard_trailers/medium_trailer_4_wheel.pcx 146 170 09 20 26 -9 -7
  325 sprites/standard_trailers/medium_trailer_4_wheel.pcx 178 170 01 24 12 -9 -16
  326 sprites/standard_trailers/medium_trailer_4_wheel.pcx 210 170 09 20 26 -17 -7
  327 sprites/standard_trailers/medium_trailer_4_wheel.pcx 242 170 01 16 36 -19 -8
  328 sprites/standard_trailers/medium_trailer_4_wheel.pcx 290 170 09 20 26 -13 -10
   // Standard bulldozer end dump - coal, loaded
  329 sprites/standard_trailers/medium_trailer_4_wheel.pcx 34 210 01 24 12 -3 -10
  330 sprites/standard_trailers/medium_trailer_4_wheel.pcx 66 210 09 20 26 -11 -9
  331 sprites/standard_trailers/medium_trailer_4_wheel.pcx 98 210 01 16 36 -15 -7
  332 sprites/standard_trailers/medium_trailer_4_wheel.pcx 146 210 09 20 26 -9 -7
  333 sprites/standard_trailers/medium_trailer_4_wheel.pcx 178 210 01 24 12 -9 -16
  334 sprites/standard_trailers/medium_trailer_4_wheel.pcx 210 210 09 20 26 -17 -7
  335 sprites/standard_trailers/medium_trailer_4_wheel.pcx 242 210 01 16 36 -19 -8
  336 sprites/standard_trailers/medium_trailer_4_wheel.pcx 290 210 09 20 26 -13 -10
   // Standard bulldozer end dump - grain, loading
  337 sprites/standard_trailers/medium_trailer_4_wheel.pcx 34 250 01 24 12 -3 -10
  338 sprites/standard_trailers/medium_trailer_4_wheel.pcx 66 250 09 20 26 -11 -9
  339 sprites/standard_trailers/medium_trailer_4_wheel.pcx 98 250 01 16 36 -15 -7
  340 sprites/standard_trailers/medium_trailer_4_wheel.pcx 146 250 09 20 26 -9 -7
  341 sprites/standard_trailers/medium_trailer_4_wheel.pcx 178 250 01 24 12 -9 -16
  342 sprites/standard_trailers/medium_trailer_4_wheel.pcx 210 250 09 20 26 -17 -7
  343 sprites/standard_trailers/medium_trailer_4_wheel.pcx 242 250 01 16 36 -19 -8
  344 sprites/standard_trailers/medium_trailer_4_wheel.pcx 290 250 09 20 26 -13 -10
  // Standard bulldozer end dump - grain, loaded
  345 sprites/standard_trailers/medium_trailer_4_wheel.pcx 34 290 01 24 12 -3 -10
  346 sprites/standard_trailers/medium_trailer_4_wheel.pcx 66 290 09 20 26 -11 -9
  347 sprites/standard_trailers/medium_trailer_4_wheel.pcx 98 290 01 16 36 -15 -7
  348 sprites/standard_trailers/medium_trailer_4_wheel.pcx 146 290 09 20 26 -9 -7
  349 sprites/standard_trailers/medium_trailer_4_wheel.pcx 178 290 01 24 12 -9 -16
  350 sprites/standard_trailers/medium_trailer_4_wheel.pcx 210 290 09 20 26 -17 -7
  351 sprites/standard_trailers/medium_trailer_4_wheel.pcx 242 290 01 16 36 -19 -8
  352 sprites/standard_trailers/medium_trailer_4_wheel.pcx 290 290 09 20 26 -13 -10
  // Standard bulldozer end dump - brown, loading
  353 sprites/standard_trailers/medium_trailer_4_wheel.pcx 34 410 01 24 12 -3 -10
  354 sprites/standard_trailers/medium_trailer_4_wheel.pcx 66 410 09 20 26 -11 -9
  355 sprites/standard_trailers/medium_trailer_4_wheel.pcx 98 410 01 16 36 -15 -7
  356 sprites/standard_trailers/medium_trailer_4_wheel.pcx 146 410 09 20 26 -9 -7
  357 sprites/standard_trailers/medium_trailer_4_wheel.pcx 178 410 01 24 12 -9 -16
  358 sprites/standard_trailers/medium_trailer_4_wheel.pcx 210 410 09 20 26 -17 -7
  359 sprites/standard_trailers/medium_trailer_4_wheel.pcx 242 410 01 16 36 -19 -8
  360 sprites/standard_trailers/medium_trailer_4_wheel.pcx 290 410 09 20 26 -13 -10
  // Standard bulldozer end dump - brown, loaded
  361 sprites/standard_trailers/medium_trailer_4_wheel.pcx 34 450 01 24 12 -3 -10
  362 sprites/standard_trailers/medium_trailer_4_wheel.pcx 66 450 09 20 26 -11 -9
  363 sprites/standard_trailers/medium_trailer_4_wheel.pcx 98 450 01 16 36 -15 -7
  364 sprites/standard_trailers/medium_trailer_4_wheel.pcx 146 450 09 20 26 -9 -7
  365 sprites/standard_trailers/medium_trailer_4_wheel.pcx 178 450 01 24 12 -9 -16
  366 sprites/standard_trailers/medium_trailer_4_wheel.pcx 210 450 09 20 26 -17 -7
  367 sprites/standard_trailers/medium_trailer_4_wheel.pcx 242 450 01 16 36 -19 -8
  368 sprites/standard_trailers/medium_trailer_4_wheel.pcx 290 450 09 20 26 -13 -10
  // Standard bulldozer end dump - red, loading
  369 sprites/standard_trailers/medium_trailer_4_wheel.pcx 34 370 01 24 12 -3 -10
  370 sprites/standard_trailers/medium_trailer_4_wheel.pcx 66 370 09 20 26 -11 -9
  371 sprites/standard_trailers/medium_trailer_4_wheel.pcx 98 370 01 16 36 -15 -7
  372 sprites/standard_trailers/medium_trailer_4_wheel.pcx 146 370 09 20 26 -9 -7
  373 sprites/standard_trailers/medium_trailer_4_wheel.pcx 178 370 01 24 12 -9 -16
  374 sprites/standard_trailers/medium_trailer_4_wheel.pcx 210 370 09 20 26 -17 -7
  375 sprites/standard_trailers/medium_trailer_4_wheel.pcx 242 370 01 16 36 -19 -8
  376 sprites/standard_trailers/medium_trailer_4_wheel.pcx 290 370 09 20 26 -13 -10
  // Standard bulldozer end dump - red, loaded
  377 sprites/standard_trailers/medium_trailer_4_wheel.pcx 34 370 01 24 12 -3 -10
  378 sprites/standard_trailers/medium_trailer_4_wheel.pcx 66 370 09 20 26 -11 -9
  379 sprites/standard_trailers/medium_trailer_4_wheel.pcx 98 370 01 16 36 -15 -7
  380 sprites/standard_trailers/medium_trailer_4_wheel.pcx 146 370 09 20 26 -9 -7
  381 sprites/standard_trailers/medium_trailer_4_wheel.pcx 178 370 01 24 12 -9 -16
  382 sprites/standard_trailers/medium_trailer_4_wheel.pcx 210 370 09 20 26 -17 -7
  383 sprites/standard_trailers/medium_trailer_4_wheel.pcx 242 370 01 16 36 -19 -8
  384 sprites/standard_trailers/medium_trailer_4_wheel.pcx 290 370 09 20 26 -13 -10
  // Standard bulldozer end dump - grey, loading
  385 sprites/standard_trailers/medium_trailer_4_wheel.pcx 34 90 01 24 12 -3 -10
  386 sprites/standard_trailers/medium_trailer_4_wheel.pcx 66 90 09 20 26 -11 -9
  387 sprites/standard_trailers/medium_trailer_4_wheel.pcx 98 90 01 16 36 -15 -7
  388 sprites/standard_trailers/medium_trailer_4_wheel.pcx 146 90 09 20 26 -9 -7
  389 sprites/standard_trailers/medium_trailer_4_wheel.pcx 178 90 01 24 12 -9 -16
  390 sprites/standard_trailers/medium_trailer_4_wheel.pcx 210 90 09 20 26 -17 -7
  391 sprites/standard_trailers/medium_trailer_4_wheel.pcx 242 90 01 16 36 -19 -8
  392 sprites/standard_trailers/medium_trailer_4_wheel.pcx 290 90 09 20 26 -13 -10
  // Standard bulldozer end dump - grey, loaded
  393 sprites/standard_trailers/medium_trailer_4_wheel.pcx 34 130 01 24 12 -3 -10
  394 sprites/standard_trailers/medium_trailer_4_wheel.pcx 66 130 09 20 26 -11 -9
  395 sprites/standard_trailers/medium_trailer_4_wheel.pcx 98 130 01 16 36 -15 -7
  396 sprites/standard_trailers/medium_trailer_4_wheel.pcx 146 130 09 20 26 -9 -7
  397 sprites/standard_trailers/medium_trailer_4_wheel.pcx 178 130 01 24 12 -9 -16
  398 sprites/standard_trailers/medium_trailer_4_wheel.pcx 210 130 09 20 26 -17 -7
  399 sprites/standard_trailers/medium_trailer_4_wheel.pcx 242 130 01 16 36 -19 -8
  400 sprites/standard_trailers/medium_trailer_4_wheel.pcx 290 130 09 20 26 -13 -10
  401 * 17	 02 01 08  03 03    00 00  01 00  02 00    00 00  01 00  02 00 // iron ore ?
  402 * 17	 02 01 01  03 03    00 00  03 00  04 00    00 00  03 00  04 00 // coal ?
  403 * 17	 02 01 06  03 03    00 00  05 00  06 00    00 00  05 00  06 00 // grain ?
  404 * 17	 02 01 0E  03 03    00 00  07 00  08 00    00 00  07 00  08 00 // brown ?
//!!Warning (94): Redefining ID 0C not used since previous definition at sprite 263.
  405 * 17	 02 01 0C  03 03    00 00  09 00  0A 00    00 00  09 00  0A 00 // red ?
  406 * 17	 02 01 0D  03 03    00 00  0B 00  0C 00    00 00  0B 00  0C 00 // grey ?
  // Standard bulldozer side dump sled - empty
  407 * 4	 01 01 0D 08
  408 sprites/standard_trailers/medium_sled.pcx 34 50 01 24 12 -3 -10
  409 sprites/standard_trailers/medium_sled.pcx 66 50 09 20 26 -11 -9
  410 sprites/standard_trailers/medium_sled.pcx 98 50 01 16 36 -15 -7
  411 sprites/standard_trailers/medium_sled.pcx 146 50 09 20 26 -9 -7
  412 sprites/standard_trailers/medium_sled.pcx 178 50 01 24 12 -9 -16
  413 sprites/standard_trailers/medium_sled.pcx 210 50 09 20 26 -17 -7
  414 sprites/standard_trailers/medium_sled.pcx 242 50 01 16 36 -19 -8
  415 sprites/standard_trailers/medium_sled.pcx 290 50 09 20 26 -13 -10
   // Standard bulldozer side dump sled - iron ore, loading  !! this isn't iron ore??
  416 sprites/standard_trailers/medium_sled.pcx 34 490 01 24 12 -3 -10
  417 sprites/standard_trailers/medium_sled.pcx 66 490 09 20 20 -11 -9
  418 sprites/standard_trailers/medium_sled.pcx 98 490 01 16 36 -15 -7
  419 sprites/standard_trailers/medium_sled.pcx 146 490 09 20 26 -9 -7
  420 sprites/standard_trailers/medium_sled.pcx 178 490 01 24 12 -9 -16
  421 sprites/standard_trailers/medium_sled.pcx 210 490 09 20 26 -17 -7
  422 sprites/standard_trailers/medium_sled.pcx 242 490 01 16 36 -19 -8
  423 sprites/standard_trailers/medium_sled.pcx 290 490 09 20 26 -13 -10
   // Standard bulldozer side dump sled - iron ore, loaded  !! this isn't iron ore??
  424 sprites/standard_trailers/medium_sled.pcx 34 530 01 24 12 -3 -10
  425 sprites/standard_trailers/medium_sled.pcx 66 530 09 20 20 -11 -9
  426 sprites/standard_trailers/medium_sled.pcx 98 530 01 16 36 -15 -7
  427 sprites/standard_trailers/medium_sled.pcx 146 530 09 20 26 -9 -7
  428 sprites/standard_trailers/medium_sled.pcx 178 530 01 24 12 -9 -16
  429 sprites/standard_trailers/medium_sled.pcx 210 530 09 20 26 -17 -7
  430 sprites/standard_trailers/medium_sled.pcx 242 530 01 16 36 -19 -8
  431 sprites/standard_trailers/medium_sled.pcx 290 530 09 20 26 -13 -10
   // Standard bulldozer side dump sled - coal, loading
  432 sprites/standard_trailers/medium_sled.pcx 34 170 01 24 12 -3 -10
  433 sprites/standard_trailers/medium_sled.pcx 66 170 09 20 26 -11 -9
  434 sprites/standard_trailers/medium_sled.pcx 98 170 01 16 36 -15 -7
  435 sprites/standard_trailers/medium_sled.pcx 146 170 09 20 26 -9 -7
  436 sprites/standard_trailers/medium_sled.pcx 178 170 01 24 12 -9 -16
  437 sprites/standard_trailers/medium_sled.pcx 210 170 09 20 26 -17 -7
  438 sprites/standard_trailers/medium_sled.pcx 242 170 01 16 36 -19 -8
  439 sprites/standard_trailers/medium_sled.pcx 290 170 09 20 26 -13 -10
   // Standard bulldozer side dump sled - coal, loaded
  440 sprites/standard_trailers/medium_sled.pcx 34 210 01 24 12 -3 -10
  441 sprites/standard_trailers/medium_sled.pcx 66 210 09 20 26 -11 -9
  442 sprites/standard_trailers/medium_sled.pcx 98 210 01 16 36 -15 -7
  443 sprites/standard_trailers/medium_sled.pcx 146 210 09 20 26 -9 -7
  444 sprites/standard_trailers/medium_sled.pcx 178 210 01 24 12 -9 -16
  445 sprites/standard_trailers/medium_sled.pcx 210 210 09 20 26 -17 -7
  446 sprites/standard_trailers/medium_sled.pcx 242 210 01 16 36 -19 -8
  447 sprites/standard_trailers/medium_sled.pcx 290 210 09 20 26 -13 -10
   // Standard bulldozer side dump sled - grain, loading
  448 sprites/standard_trailers/medium_sled.pcx 34 250 01 24 12 -3 -10
  449 sprites/standard_trailers/medium_sled.pcx 66 250 09 20 26 -11 -9
  450 sprites/standard_trailers/medium_sled.pcx 98 250 01 16 36 -15 -7
  451 sprites/standard_trailers/medium_sled.pcx 146 250 09 20 26 -9 -7
  452 sprites/standard_trailers/medium_sled.pcx 178 250 01 24 12 -9 -16
  453 sprites/standard_trailers/medium_sled.pcx 210 250 09 20 26 -17 -7
  454 sprites/standard_trailers/medium_sled.pcx 242 250 01 16 36 -19 -8
  455 sprites/standard_trailers/medium_sled.pcx 290 250 09 20 26 -13 -10
  // Standard bulldozer side dump sled - grain, loaded
  456 sprites/standard_trailers/medium_sled.pcx 34 290 01 24 12 -3 -10
  457 sprites/standard_trailers/medium_sled.pcx 66 290 09 20 26 -11 -9
  458 sprites/standard_trailers/medium_sled.pcx 98 290 01 16 36 -15 -7
  459 sprites/standard_trailers/medium_sled.pcx 146 290 09 20 26 -9 -7
  460 sprites/standard_trailers/medium_sled.pcx 178 290 01 24 12 -9 -16
  461 sprites/standard_trailers/medium_sled.pcx 210 290 09 20 26 -17 -7
  462 sprites/standard_trailers/medium_sled.pcx 242 290 01 16 36 -19 -8
  463 sprites/standard_trailers/medium_sled.pcx 290 290 09 20 26 -13 -10
  // Standard bulldozer side dump sled - brown, loading
  464 sprites/standard_trailers/medium_sled.pcx 34 410 01 24 12 -3 -10
  465 sprites/standard_trailers/medium_sled.pcx 66 410 09 20 26 -11 -9
  466 sprites/standard_trailers/medium_sled.pcx 98 410 01 16 36 -15 -7
  467 sprites/standard_trailers/medium_sled.pcx 146 410 09 20 26 -9 -7
  468 sprites/standard_trailers/medium_sled.pcx 178 410 01 24 12 -9 -16
  469 sprites/standard_trailers/medium_sled.pcx 210 410 09 20 26 -17 -7
  470 sprites/standard_trailers/medium_sled.pcx 242 410 01 16 36 -19 -8
  471 sprites/standard_trailers/medium_sled.pcx 290 410 09 20 26 -13 -10
  // Standard bulldozer side dump sled - brown, loaded
  472 sprites/standard_trailers/medium_sled.pcx 34 450 01 24 12 -3 -10
  473 sprites/standard_trailers/medium_sled.pcx 66 450 09 20 26 -11 -9
  474 sprites/standard_trailers/medium_sled.pcx 98 450 01 16 36 -15 -7
  475 sprites/standard_trailers/medium_sled.pcx 146 450 09 20 26 -9 -7
  476 sprites/standard_trailers/medium_sled.pcx 178 450 01 24 12 -9 -16
  477 sprites/standard_trailers/medium_sled.pcx 210 450 09 20 26 -17 -7
  478 sprites/standard_trailers/medium_sled.pcx 242 450 01 16 36 -19 -8
  479 sprites/standard_trailers/medium_sled.pcx 290 450 09 20 26 -13 -10
  // Standard bulldozer side dump sled - red, loading
  480 sprites/standard_trailers/medium_sled.pcx 34 330 01 24 12 -3 -10
  481 sprites/standard_trailers/medium_sled.pcx 66 330 09 20 26 -11 -9
  482 sprites/standard_trailers/medium_sled.pcx 98 330 01 16 36 -15 -7
  483 sprites/standard_trailers/medium_sled.pcx 146 330 09 20 26 -9 -7
  484 sprites/standard_trailers/medium_sled.pcx 178 330 01 24 12 -9 -16
  485 sprites/standard_trailers/medium_sled.pcx 210 330 09 20 26 -17 -7
  486 sprites/standard_trailers/medium_sled.pcx 242 330 01 16 36 -19 -8
  487 sprites/standard_trailers/medium_sled.pcx 290 330 09 20 26 -13 -10
  // Standard bulldozer side dump sled - red, loaded
  488 sprites/standard_trailers/medium_sled.pcx 34 370 01 24 12 -3 -10
  489 sprites/standard_trailers/medium_sled.pcx 66 370 09 20 26 -11 -9
  490 sprites/standard_trailers/medium_sled.pcx 98 370 01 16 36 -15 -7
  491 sprites/standard_trailers/medium_sled.pcx 146 370 09 20 26 -9 -7
  492 sprites/standard_trailers/medium_sled.pcx 178 370 01 24 12 -9 -16
  493 sprites/standard_trailers/medium_sled.pcx 210 370 09 20 26 -17 -7
  494 sprites/standard_trailers/medium_sled.pcx 242 370 01 16 36 -19 -8
  495 sprites/standard_trailers/medium_sled.pcx 290 370 09 20 26 -13 -10
  // Standard bulldozer side dump sled - grey, loading
  496 sprites/standard_trailers/medium_sled.pcx 34 90 01 24 12 -3 -10
  497 sprites/standard_trailers/medium_sled.pcx 66 90 09 20 26 -11 -9
  498 sprites/standard_trailers/medium_sled.pcx 98 90 01 16 36 -15 -7
  499 sprites/standard_trailers/medium_sled.pcx 146 90 09 20 26 -9 -7
  500 sprites/standard_trailers/medium_sled.pcx 178 90 01 24 12 -9 -16
  501 sprites/standard_trailers/medium_sled.pcx 210 90 09 20 26 -17 -7
  502 sprites/standard_trailers/medium_sled.pcx 242 90 01 16 36 -19 -8
  503 sprites/standard_trailers/medium_sled.pcx 290 90 09 20 26 -13 -10
  // Standard bulldozer side dump sled - grey, loaded
  504 sprites/standard_trailers/medium_sled.pcx 34 130 01 24 12 -3 -10
  505 sprites/standard_trailers/medium_sled.pcx 66 130 09 20 26 -11 -9
  506 sprites/standard_trailers/medium_sled.pcx 98 130 01 16 36 -15 -7
  507 sprites/standard_trailers/medium_sled.pcx 146 130 09 20 26 -9 -7
  508 sprites/standard_trailers/medium_sled.pcx 178 130 01 24 12 -9 -16
  509 sprites/standard_trailers/medium_sled.pcx 210 130 09 20 26 -17 -7
  510 sprites/standard_trailers/medium_sled.pcx 242 130 01 16 36 -19 -8
  511 sprites/standard_trailers/medium_sled.pcx 290 130 09 20 26 -13 -10
  512 * 17	 02 01 28  03 03    00 00  01 00  02 00    00 00  01 00  02 00 // iron ore ?
  513 * 17	 02 01 21  03 03    00 00  03 00  04 00    00 00  03 00  04 00 // coal ?
  514 * 17	 02 01 26  03 03    00 00  05 00  06 00    00 00  05 00  06 00 // grain ?
  515 * 17	 02 01 2E  03 03    00 00  07 00  08 00    00 00  07 00  08 00 // brown ?
  516 * 17	 02 01 2C  03 03    00 00  09 00  0A 00    00 00  09 00  0A 00 // red ?
  517 * 17	 02 01 2D  03 03    00 00  0B 00  0C 00    00 00  0B 00  0C 00 // grey ?
  // Standard bulldozer flat trailer
  518 * 4	 01 01 09 08
  // Standard bulldozer flat trailer - empty
  519 sprites/standard_trailers/medium_trailer_4_wheel.pcx 34 730 01 24 12 -3 -10
  520 sprites/standard_trailers/medium_trailer_4_wheel.pcx 66 730 09 20 26 -11 -9
  521 sprites/standard_trailers/medium_trailer_4_wheel.pcx 98 730 01 16 36 -15 -7
  522 sprites/standard_trailers/medium_trailer_4_wheel.pcx 146 730 09 20 26 -9 -7
  523 sprites/standard_trailers/medium_trailer_4_wheel.pcx 178 730 01 24 12 -9 -16
  524 sprites/standard_trailers/medium_trailer_4_wheel.pcx 210 730 09 20 26 -17 -7
  525 sprites/standard_trailers/medium_trailer_4_wheel.pcx 242 730 01 16 36 -19 -8
  526 sprites/standard_trailers/medium_trailer_4_wheel.pcx 290 730 09 20 26 -13 -10
  // Standard bulldozer flat trailer - steel, loading  
  527 sprites/standard_trailers/medium_trailer_4_wheel.pcx 34 970 01 24 12 -3 -10
  528 sprites/standard_trailers/medium_trailer_4_wheel.pcx 66 970 09 20 26 -11 -9
  529 sprites/standard_trailers/medium_trailer_4_wheel.pcx 98 970 01 16 36 -15 -7
  530 sprites/standard_trailers/medium_trailer_4_wheel.pcx 146 970 09 20 26 -9 -7
  531 sprites/standard_trailers/medium_trailer_4_wheel.pcx 178 970 01 24 12 -9 -16
  532 sprites/standard_trailers/medium_trailer_4_wheel.pcx 210 970 09 20 26 -17 -7
  533 sprites/standard_trailers/medium_trailer_4_wheel.pcx 242 970 01 16 36 -19 -8
  534 sprites/standard_trailers/medium_trailer_4_wheel.pcx 290 970 09 20 26 -13 -10
  // Standard bulldozer flat trailer - steel, loaded  
  535 sprites/standard_trailers/medium_trailer_4_wheel.pcx 34 970 01 24 12 -3 -10
  536 sprites/standard_trailers/medium_trailer_4_wheel.pcx 66 970 09 20 26 -11 -9
  537 sprites/standard_trailers/medium_trailer_4_wheel.pcx 98 970 01 16 36 -15 -7
  538 sprites/standard_trailers/medium_trailer_4_wheel.pcx 146 970 09 20 26 -9 -7
  539 sprites/standard_trailers/medium_trailer_4_wheel.pcx 178 970 01 24 12 -9 -16
  540 sprites/standard_trailers/medium_trailer_4_wheel.pcx 210 970 09 20 26 -17 -7
  541 sprites/standard_trailers/medium_trailer_4_wheel.pcx 242 970 01 16 36 -19 -8
  542 sprites/standard_trailers/medium_trailer_4_wheel.pcx 290 970 09 20 26 -13 -10
  // Standard bulldozer flat trailer - paper, loading  
  543 sprites/standard_trailers/medium_trailer_4_wheel.pcx 34 1130 01 24 12 -3 -10
  544 sprites/standard_trailers/medium_trailer_4_wheel.pcx 66 1130 09 20 26 -11 -9
  545 sprites/standard_trailers/medium_trailer_4_wheel.pcx 98 1130 01 16 36 -15 -7
  546 sprites/standard_trailers/medium_trailer_4_wheel.pcx 146 1130 09 20 26 -9 -7
  547 sprites/standard_trailers/medium_trailer_4_wheel.pcx 178 1130 01 24 12 -9 -16
  548 sprites/standard_trailers/medium_trailer_4_wheel.pcx 210 1130 09 20 26 -17 -7
  549 sprites/standard_trailers/medium_trailer_4_wheel.pcx 242 1130 01 16 36 -19 -8
  550 sprites/standard_trailers/medium_trailer_4_wheel.pcx 290 1130 09 20 26 -13 -10
  // Standard bulldozer flat trailer - paper, loaded  
  551 sprites/standard_trailers/medium_trailer_4_wheel.pcx 34 1130 01 24 12 -3 -10
  552 sprites/standard_trailers/medium_trailer_4_wheel.pcx 66 1130 09 20 26 -11 -9
  553 sprites/standard_trailers/medium_trailer_4_wheel.pcx 98 1130 01 16 36 -15 -7
  554 sprites/standard_trailers/medium_trailer_4_wheel.pcx 146 1130 09 20 26 -9 -7
  555 sprites/standard_trailers/medium_trailer_4_wheel.pcx 178 1130 01 24 12 -9 -16
  556 sprites/standard_trailers/medium_trailer_4_wheel.pcx 210 1130 09 20 26 -17 -7
  557 sprites/standard_trailers/medium_trailer_4_wheel.pcx 242 1130 01 16 36 -19 -8
  558 sprites/standard_trailers/medium_trailer_4_wheel.pcx 290 1130 09 20 26 -13 -10
 // Standard bulldozer flat trailer - livestock, loading  
  559 sprites/standard_trailers/medium_trailer_4_wheel.pcx 34 810 01 24 12 -3 -10
  560 sprites/standard_trailers/medium_trailer_4_wheel.pcx 66 810 09 20 26 -11 -9
  561 sprites/standard_trailers/medium_trailer_4_wheel.pcx 98 810 01 16 36 -15 -7
  562 sprites/standard_trailers/medium_trailer_4_wheel.pcx 146 810 09 20 26 -9 -7
  563 sprites/standard_trailers/medium_trailer_4_wheel.pcx 178 810 01 24 12 -9 -16
  564 sprites/standard_trailers/medium_trailer_4_wheel.pcx 210 810 09 20 26 -17 -7
  565 sprites/standard_trailers/medium_trailer_4_wheel.pcx 242 810 01 16 36 -19 -8
  566 sprites/standard_trailers/medium_trailer_4_wheel.pcx 290 810 09 20 26 -13 -10
 // Standard bulldozer flat trailer - livestock, loaded
  567 sprites/standard_trailers/medium_trailer_4_wheel.pcx 34 810 01 24 12 -3 -10
  568 sprites/standard_trailers/medium_trailer_4_wheel.pcx 66 810 09 20 26 -11 -9
  569 sprites/standard_trailers/medium_trailer_4_wheel.pcx 98 810 01 16 36 -15 -7
  570 sprites/standard_trailers/medium_trailer_4_wheel.pcx 146 810 09 20 26 -9 -7
  571 sprites/standard_trailers/medium_trailer_4_wheel.pcx 178 810 01 24 12 -9 -16
  572 sprites/standard_trailers/medium_trailer_4_wheel.pcx 210 810 09 20 26 -17 -7
  573 sprites/standard_trailers/medium_trailer_4_wheel.pcx 242 810 01 16 36 -19 -8
  574 sprites/standard_trailers/medium_trailer_4_wheel.pcx 290 810 09 20 26 -13 -10
 // Standard bulldozer flat trailer - copper, loading  
  575 sprites/standard_trailers/medium_trailer_4_wheel.pcx 34 1050 01 24 12 -3 -10
  576 sprites/standard_trailers/medium_trailer_4_wheel.pcx 66 1050 09 20 26 -11 -9
  577 sprites/standard_trailers/medium_trailer_4_wheel.pcx 98 1050 01 16 36 -15 -7
  578 sprites/standard_trailers/medium_trailer_4_wheel.pcx 146 1050 09 20 26 -9 -7
  579 sprites/standard_trailers/medium_trailer_4_wheel.pcx 178 1050 01 24 12 -9 -16
  580 sprites/standard_trailers/medium_trailer_4_wheel.pcx 210 1050 09 20 26 -17 -7
  581 sprites/standard_trailers/medium_trailer_4_wheel.pcx 242 1050 01 16 36 -19 -8
  582 sprites/standard_trailers/medium_trailer_4_wheel.pcx 290 1050 09 20 26 -13 -10
 // Standard bulldozer flat trailer - copper, loaded  
  583 sprites/standard_trailers/medium_trailer_4_wheel.pcx 34 1050 01 24 12 -3 -10
  584 sprites/standard_trailers/medium_trailer_4_wheel.pcx 66 1050 09 20 26 -11 -9
  585 sprites/standard_trailers/medium_trailer_4_wheel.pcx 98 1050 01 16 36 -15 -7
  586 sprites/standard_trailers/medium_trailer_4_wheel.pcx 146 1050 09 20 26 -9 -7
  587 sprites/standard_trailers/medium_trailer_4_wheel.pcx 178 1050 01 24 12 -9 -16
  588 sprites/standard_trailers/medium_trailer_4_wheel.pcx 210 1050 09 20 26 -17 -7
  589 sprites/standard_trailers/medium_trailer_4_wheel.pcx 242 1050 01 16 36 -19 -8
  590 sprites/standard_trailers/medium_trailer_4_wheel.pcx 290 1050 09 20 26 -13 -10
  591 * 17	 02 01 09  03 03   00 00  01 00  02 00    00 00  01 00  02 00 // steel
  592 * 17	 02 01 0B  03 03   00 00  03 00  04 00    00 00  03 00  04 00 // paper
  593 * 17	 02 01 04  03 03   00 00  05 00  06 00    00 00  05 00  06 00 // livestock
  594 * 17	 02 01 0F  03 03   00 00  07 00  08 00    00 00  07 00  08 00 // copper
  // Standard bulldozer flat sled
  595 * 4	 01 01 09 08
  // Standard bulldozer flat sled - empty
  596 sprites/standard_trailers/medium_sled.pcx 34 730 01 24 12 -3 -10
  597 sprites/standard_trailers/medium_sled.pcx 66 730 09 20 26 -11 -9
  598 sprites/standard_trailers/medium_sled.pcx 98 730 01 16 36 -15 -7
  599 sprites/standard_trailers/medium_sled.pcx 146 730 09 20 26 -9 -7
  600 sprites/standard_trailers/medium_sled.pcx 178 730 01 24 12 -9 -16
  601 sprites/standard_trailers/medium_sled.pcx 210 730 09 20 26 -17 -7
  602 sprites/standard_trailers/medium_sled.pcx 242 730 01 16 36 -19 -8
  603 sprites/standard_trailers/medium_sled.pcx 290 730 09 20 26 -13 -10
  // Standard bulldozer flat sled - steel, loading  
  604 sprites/standard_trailers/medium_sled.pcx 34 970 01 24 12 -3 -10
  605 sprites/standard_trailers/medium_sled.pcx 66 970 09 20 26 -11 -9
  606 sprites/standard_trailers/medium_sled.pcx 98 970 01 16 36 -15 -7
  607 sprites/standard_trailers/medium_sled.pcx 146 970 09 20 26 -9 -7
  608 sprites/standard_trailers/medium_sled.pcx 178 970 01 24 12 -9 -16
  609 sprites/standard_trailers/medium_sled.pcx 210 970 09 20 26 -17 -7
  610 sprites/standard_trailers/medium_sled.pcx 242 970 01 16 36 -19 -8
  611 sprites/standard_trailers/medium_sled.pcx 290 970 09 20 26 -13 -10
  // Standard bulldozer flat sled - steel, loaded  
  612 sprites/standard_trailers/medium_sled.pcx 34 970 01 24 12 -3 -10
  613 sprites/standard_trailers/medium_sled.pcx 66 970 09 20 26 -11 -9
  614 sprites/standard_trailers/medium_sled.pcx 98 970 01 16 36 -15 -7
  615 sprites/standard_trailers/medium_sled.pcx 146 970 09 20 26 -9 -7
  616 sprites/standard_trailers/medium_sled.pcx 178 970 01 24 12 -9 -16
  617 sprites/standard_trailers/medium_sled.pcx 210 970 09 20 26 -17 -7
  618 sprites/standard_trailers/medium_sled.pcx 242 970 01 16 36 -19 -8
  619 sprites/standard_trailers/medium_sled.pcx 290 970 09 20 26 -13 -10
  // Standard bulldozer flat sled - paper, loading  
  620 sprites/standard_trailers/medium_sled.pcx 34 1130 01 24 12 -3 -10
  621 sprites/standard_trailers/medium_sled.pcx 66 1130 09 20 26 -11 -9
  622 sprites/standard_trailers/medium_sled.pcx 98 1130 01 16 36 -15 -7
  623 sprites/standard_trailers/medium_sled.pcx 146 1130 09 20 26 -9 -7
  624 sprites/standard_trailers/medium_sled.pcx 178 1130 01 24 12 -9 -16
  625 sprites/standard_trailers/medium_sled.pcx 210 1130 09 20 26 -17 -7
  626 sprites/standard_trailers/medium_sled.pcx 242 1130 01 16 36 -19 -8
  627 sprites/standard_trailers/medium_sled.pcx 290 1130 09 20 26 -13 -10
  // Standard bulldozer flat sled - paper, loaded  
  628 sprites/standard_trailers/medium_sled.pcx 34 1130 01 24 12 -3 -10
  629 sprites/standard_trailers/medium_sled.pcx 66 1130 09 20 26 -11 -9
  630 sprites/standard_trailers/medium_sled.pcx 98 1130 01 16 36 -15 -7
  631 sprites/standard_trailers/medium_sled.pcx 146 1130 09 20 26 -9 -7
  632 sprites/standard_trailers/medium_sled.pcx 178 1130 01 24 12 -9 -16
  633 sprites/standard_trailers/medium_sled.pcx 210 1130 09 20 26 -17 -7
  634 sprites/standard_trailers/medium_sled.pcx 242 1130 01 16 36 -19 -8
  635 sprites/standard_trailers/medium_sled.pcx 290 1130 09 20 26 -13 -10
 // Standard bulldozer flat sled - livestock, loading  
  636 sprites/standard_trailers/medium_sled.pcx 34 810 01 24 12 -3 -10
  637 sprites/standard_trailers/medium_sled.pcx 66 810 09 20 26 -11 -9
  638 sprites/standard_trailers/medium_sled.pcx 98 810 01 16 36 -15 -7
  639 sprites/standard_trailers/medium_sled.pcx 146 810 09 20 26 -9 -7
  640 sprites/standard_trailers/medium_sled.pcx 178 810 01 24 12 -9 -16
  641 sprites/standard_trailers/medium_sled.pcx 210 810 09 20 26 -17 -7
  642 sprites/standard_trailers/medium_sled.pcx 242 810 01 16 36 -19 -8
  643 sprites/standard_trailers/medium_sled.pcx 290 810 09 20 26 -13 -10
 // Standard bulldozer flat sled - livestock, loaded
  644 sprites/standard_trailers/medium_sled.pcx 34 810 01 24 12 -3 -10
  645 sprites/standard_trailers/medium_sled.pcx 66 810 09 20 26 -11 -9
  646 sprites/standard_trailers/medium_sled.pcx 98 810 01 16 36 -15 -7
  647 sprites/standard_trailers/medium_sled.pcx 146 810 09 20 26 -9 -7
  648 sprites/standard_trailers/medium_sled.pcx 178 810 01 24 12 -9 -16
  649 sprites/standard_trailers/medium_sled.pcx 210 810 09 20 26 -17 -7
  650 sprites/standard_trailers/medium_sled.pcx 242 810 01 16 36 -19 -8
  651 sprites/standard_trailers/medium_sled.pcx 290 810 09 20 26 -13 -10
 // Standard bulldozer flat sled - copper, loading  
  652 sprites/standard_trailers/medium_sled.pcx 34 1050 01 24 12 -3 -10
  653 sprites/standard_trailers/medium_sled.pcx 66 1050 09 20 26 -11 -9
  654 sprites/standard_trailers/medium_sled.pcx 98 1050 01 16 36 -15 -7
  655 sprites/standard_trailers/medium_sled.pcx 146 1050 09 20 26 -9 -7
  656 sprites/standard_trailers/medium_sled.pcx 178 1050 01 24 12 -9 -16
  657 sprites/standard_trailers/medium_sled.pcx 210 1050 09 20 26 -17 -7
  658 sprites/standard_trailers/medium_sled.pcx 242 1050 01 16 36 -19 -8
  659 sprites/standard_trailers/medium_sled.pcx 290 1050 09 20 26 -13 -10
 // Standard bulldozer flat sled - copper, loaded  
  660 sprites/standard_trailers/medium_sled.pcx 34 1050 01 24 12 -3 -10
  661 sprites/standard_trailers/medium_sled.pcx 66 1050 09 20 26 -11 -9
  662 sprites/standard_trailers/medium_sled.pcx 98 1050 01 16 36 -15 -7
  663 sprites/standard_trailers/medium_sled.pcx 146 1050 09 20 26 -9 -7
  664 sprites/standard_trailers/medium_sled.pcx 178 1050 01 24 12 -9 -16
  665 sprites/standard_trailers/medium_sled.pcx 210 1050 09 20 26 -17 -7
  666 sprites/standard_trailers/medium_sled.pcx 242 1050 01 16 36 -19 -8
  667 sprites/standard_trailers/medium_sled.pcx 290 1050 09 20 26 -13 -10
  668 * 17	 02 01 29  03 03   00 00  01 00  02 00    00 00  01 00  02 00 // steel
  669 * 17	 02 01 2B  03 03   00 00  03 00  04 00    00 00  03 00  04 00 // paper
  670 * 17	 02 01 24  03 03   00 00  05 00  06 00    00 00  05 00  06 00 // livestock
  671 * 17	 02 01 2F  03 03   00 00  07 00  08 00    00 00  07 00  08 00 // copper
  672 * 4	 01 01 03 08  
    // Standard bulldozer stake trailer - empty
  673 sprites/standard_trailers/medium_trailer_4_wheel.pcx 34 610 01 24 12 -3 -10
  674 sprites/standard_trailers/medium_trailer_4_wheel.pcx 66 610 09 20 26 -11 -9
  675 sprites/standard_trailers/medium_trailer_4_wheel.pcx 98 610 01 16 36 -15 -7
  676 sprites/standard_trailers/medium_trailer_4_wheel.pcx 146 610 09 20 26 -9 -7
  677 sprites/standard_trailers/medium_trailer_4_wheel.pcx 178 610 01 24 12 -9 -16
  678 sprites/standard_trailers/medium_trailer_4_wheel.pcx 210 610 09 20 26 -17 -7
  679 sprites/standard_trailers/medium_trailer_4_wheel.pcx 242 610 01 16 36 -19 -8
  680 sprites/standard_trailers/medium_trailer_4_wheel.pcx 290 610 09 20 26 -13 -10
    // Standard bulldozer stake trailer - Wood, loading  
  681 sprites/standard_trailers/medium_trailer_4_wheel.pcx 34 650 01 24 12 -3 -10
  682 sprites/standard_trailers/medium_trailer_4_wheel.pcx 66 650 09 20 26 -11 -9
  683 sprites/standard_trailers/medium_trailer_4_wheel.pcx 98 650 01 16 36 -15 -7
  684 sprites/standard_trailers/medium_trailer_4_wheel.pcx 146 650 09 20 26 -9 -7
  685 sprites/standard_trailers/medium_trailer_4_wheel.pcx 178 650 01 24 12 -9 -16
  686 sprites/standard_trailers/medium_trailer_4_wheel.pcx 210 650 09 20 26 -17 -7
  687 sprites/standard_trailers/medium_trailer_4_wheel.pcx 242 650 01 16 36 -19 -8
  688 sprites/standard_trailers/medium_trailer_4_wheel.pcx 290 650 09 20 26 -13 -10
    // Standard bulldozer stake trailer - Wood, loaded  
  689 sprites/standard_trailers/medium_trailer_4_wheel.pcx 34 690 01 24 12 -3 -10
  690 sprites/standard_trailers/medium_trailer_4_wheel.pcx 66 690 09 20 26 -11 -9
  691 sprites/standard_trailers/medium_trailer_4_wheel.pcx 98 690 01 16 36 -15 -7
  692 sprites/standard_trailers/medium_trailer_4_wheel.pcx 146 690 09 20 26 -9 -7
  693 sprites/standard_trailers/medium_trailer_4_wheel.pcx 178 690 01 24 12 -9 -16
  694 sprites/standard_trailers/medium_trailer_4_wheel.pcx 210 690 09 20 26 -17 -7
  695 sprites/standard_trailers/medium_trailer_4_wheel.pcx 242 690 01 16 36 -19 -8
  696 sprites/standard_trailers/medium_trailer_4_wheel.pcx 290 690 09 20 26 -13 -10
  697 * 17	 02 01 07  03 03   00 00  01 00  02 00    00 00  01 00  02 00 // wood
  698 * 4	 01 01 03 08  
    // Standard bulldozer stake sled - empty
  699 sprites/standard_trailers/medium_sled.pcx 34 610 01 24 12 -3 -10
  700 sprites/standard_trailers/medium_sled.pcx 66 610 09 20 26 -11 -9
  701 sprites/standard_trailers/medium_sled.pcx 98 610 01 16 36 -15 -7
  702 sprites/standard_trailers/medium_sled.pcx 146 610 09 20 26 -9 -7
  703 sprites/standard_trailers/medium_sled.pcx 178 610 01 24 12 -9 -16
  704 sprites/standard_trailers/medium_sled.pcx 210 610 09 20 26 -17 -7
  705 sprites/standard_trailers/medium_sled.pcx 242 610 01 16 36 -19 -8
  706 sprites/standard_trailers/medium_sled.pcx 290 610 09 20 26 -13 -10
    // Standard bulldozer stake sled - Wood, loading  
  707 sprites/standard_trailers/medium_sled.pcx 34 650 01 24 12 -3 -10
  708 sprites/standard_trailers/medium_sled.pcx 66 650 09 20 26 -11 -9
  709 sprites/standard_trailers/medium_sled.pcx 98 650 01 16 36 -15 -7
  710 sprites/standard_trailers/medium_sled.pcx 146 650 09 20 26 -9 -7
  711 sprites/standard_trailers/medium_sled.pcx 178 650 01 24 12 -9 -16
  712 sprites/standard_trailers/medium_sled.pcx 210 650 09 20 26 -17 -7
  713 sprites/standard_trailers/medium_sled.pcx 242 650 01 16 36 -19 -8
  714 sprites/standard_trailers/medium_sled.pcx 290 650 09 20 26 -13 -10
    // Standard bulldozer stake sled - Wood, loaded  
  715 sprites/standard_trailers/medium_sled.pcx 34 690 01 24 12 -3 -10
  716 sprites/standard_trailers/medium_sled.pcx 66 690 09 20 26 -11 -9
  717 sprites/standard_trailers/medium_sled.pcx 98 690 01 16 36 -15 -7
  718 sprites/standard_trailers/medium_sled.pcx 146 690 09 20 26 -9 -7
  719 sprites/standard_trailers/medium_sled.pcx 178 690 01 24 12 -9 -16
  720 sprites/standard_trailers/medium_sled.pcx 210 690 09 20 26 -17 -7
  721 sprites/standard_trailers/medium_sled.pcx 242 690 01 16 36 -19 -8
  722 sprites/standard_trailers/medium_sled.pcx 290 690 09 20 26 -13 -10
  723 * 17	 02 01 27  03 03   00 00  01 00  02 00    00 00  01 00  02 00 // wood
    // Standard bulldozer tank trailer
  724 * 4	 01 01 01 08
  725 sprites/standard_trailers/medium_trailer_4_wheel.pcx 34 10 01 24 12 -3 -10
  726 sprites/standard_trailers/medium_trailer_4_wheel.pcx 66 10 09 20 26 -11 -9
  727 sprites/standard_trailers/medium_trailer_4_wheel.pcx 98 10 01 16 36 -15 -7
  728 sprites/standard_trailers/medium_trailer_4_wheel.pcx 146 10 09 20 26 -9 -7
  729 sprites/standard_trailers/medium_trailer_4_wheel.pcx 178 10 01 24 12 -9 -16
  730 sprites/standard_trailers/medium_trailer_4_wheel.pcx 210 10 09 20 26 -17 -7
  731 sprites/standard_trailers/medium_trailer_4_wheel.pcx 242 10 01 16 36 -19 -8
  732 sprites/standard_trailers/medium_trailer_4_wheel.pcx 290 10 09 20 26 -13 -10
  733 * 9	 02 01 03   01 01    00 00    00 00 // tank trailer
    // Standard bulldozer tank trailer
  734 * 4	 01 01 01 08
  735 sprites/standard_trailers/medium_sled.pcx 34 10 01 24 12 -3 -10
  736 sprites/standard_trailers/medium_sled.pcx 66 10 09 20 26 -11 -9
  737 sprites/standard_trailers/medium_sled.pcx 98 10 01 16 36 -15 -7
  738 sprites/standard_trailers/medium_sled.pcx 146 10 09 20 26 -9 -7
  739 sprites/standard_trailers/medium_sled.pcx 178 10 01 24 12 -9 -16
  740 sprites/standard_trailers/medium_sled.pcx 210 10 09 20 26 -17 -7
  741 sprites/standard_trailers/medium_sled.pcx 242 10 01 16 36 -19 -8
  742 sprites/standard_trailers/medium_sled.pcx 290 10 09 20 26 -13 -10
  743 * 9	 02 01 23   01 01    00 00    00 00 // tank sled
  // Rough order of business here:
      // set length and refit texts
      // choose sleds or trailers action 2 branch
      // find cargo of vehicle, choose action 2 matching
  744 * 66	 02 01 CE  // choose sled sprites according to cargo
                 81 47 00 FF // var 47 in format ccccwwtt where I want tt 
                 0E // range
                  21 00 01 01 // coal
                  26 00 06 06 // grain 
                  26 00 1B 1B // wheat 
                  26 00 1D 1D // maize 
                  28 00 08 08 // iron ore
                  23 00 03 03 // oil
                  23 00 0F 0F // water
                  23 00 10 10 // rubber
                  24 00 04 04 // livestock                  
                  29 00 09 09 // steel                  
                  27 00 07 07 // wood  
                  2B 00 0B 0B // paper
                  2E 00 0E 0E // copper ore
                  27 00 1E 1E // tropical wood
                 25 00 // default 
  745 * 66	 02 01 CD  // choose wheeled trailer sprites according to cargo slot (in cargo translation tt)
                 81 47 00 FF // var 47 in format ccccwwtt where I want tt 
                 0E // range
                  01 00 01 01 // coal
                  06 00 06 06 // grain 
                  06 00 1B 1B // wheat 
                  06 00 1D 1D // maize 
                  08 00 08 08 // iron ore
                  03 00 03 03 // oil
                  03 00 0F 0F // water
                  03 00 10 10 // rubber
                  04 00 04 04 // livestock                  
                  09 00 09 09 // steel                  
                  07 00 07 07 // wood  
                  0B 00 0B 0B // paper
                  0E 00 0E 0E // copper ore
                  07 00 1E 1E // tropical wood
                 05 00 // default 
  746 * 18	 02 01 CC  // set refit text strings
                 81 F2 00 FF //
                 02 // range
                  00 80 00 00 
                  01 80 01 01 
                 FF 80 // end callback chain
  747 * 18	 02 01 CB  // choose sprites according to refit
                 81 F2 00 FF //
                 02 // range
                  CD 00 00 00 // wheeled trailers 
                  CE 00 01 01 // sleds
                 05 00 // default 
  748 * 18	 02 01 C0  // handle callbacks
                 81 0C 00 FF //
                 02 // range
                  02 80 11 11 // vehicle length CB
                  CC 00 19 19 // text suffix CB 
                 CB 00 // graphics
  749 * 7	 03 01 01 6E // Action 3
    00 // Number of different cargo types to support (!! Hex) 
	  C0 00 // default
  750 * 7	 03 01 01 6F // Action 3
    00 // Number of different cargo types to support (!! Hex) 
	  C0 00 // default
  751 * 7	 03 01 01 70 // Action 3
    00 // Number of different cargo types to support (!! Hex) 
	  C0 00 // default
  752 * 7	 03 01 01 71 // Action 3
    00 // Number of different cargo types to support (!! Hex) 
	  C0 00 // default
  753 * 7	 03 01 01 72 // Action 3
    00 // Number of different cargo types to support (!! Hex) 
	  C0 00 // default
  754 * 7	 03 01 01 73 // Action 3
    00 // Number of different cargo types to support (!! Hex) 
	  C0 00 // default

   // Large / Very large bulldozer trailer
     // Lower capacity trailers use Large graphics.  Higher capacity use Very Large graphics.
     // Rough order of business here
       // Bulldozer trailers vary capacity depending on date vehicle is built
       // Can't get CB 36 to do that on build, only on refit (oh so close)
       // So instead define multiple vehicles using the same real sprites
       // Only difference is capacity
       // Lead vehicle chooses different trailers depending on date
       // This is inefficient on source code, also on ID use, but we have 255 IDs to play with so should be ok.
     // NOTE: Don't use IDs > 128 for trailers in articulated consists (lead vehicle ID can be > 128)
  755 * 67	 00 01 19 01 7A
    00 00 00  // intro date 
    02 20     // reliability 
    03 11     // vehicle life 
    04 23     // class life 
    06 00     // climate 
    07 05     // load amount 
    08 80     // speed in mph * 3.2
    09 1E     // running cost factor 
    0A 48 4C 00 00 13 14 14 18        // running cost base 
    0E FF     // sprite ID
    0F \b30     // capacity
    10 FF     // cargo type
    11 34     // cost factor
    12 17     // sound effect
    15 20     // speed in mph * 0.8
    16 C0 20 00 68     // Bit mask of cargo types available for refitting
    // flips 1D / 1E values: excludes fruit, grain, wheat, maize; includes Wood, tropical wood
    17 16     // Callback flags bit mask
    1A 00     // Refit cost, using 25% of the purchase price cost base
    1B 00     // Retire vehicle early, this many years before the end of phase 2
    1C 02     // Miscellaneous vehicle flags
    1D 10 00          // Refittable cargo classes
    1E EF 03          // Non-refittable cargo classes
    1F 60 B3 0A 00    // Long format introduction date  
  756 * 67	 00 01 19 01 7B
    00 00 00  // intro date 
    02 20     // reliability 
    03 11     // vehicle life 
    04 23     // class life 
    06 00     // climate 
    07 05     // load amount 
    08 80     // speed in mph * 3.2
    09 1E     // running cost factor 
    0A 48 4C 00 00 13 14 14 18        // running cost base 
    0E FF     // sprite ID
    0F \b36     // capacity
    10 FF     // cargo type
    11 34     // cost factor
    12 17     // sound effect
    15 20     // speed in mph * 0.8
    16 C0 20 00 68     // Bit mask of cargo types available for refitting
    // flips 1D / 1E values: excludes fruit, grain, wheat, maize; includes Wood, tropical wood
    17 16     // Callback flags bit mask
    1A 00     // Refit cost, using 25% of the purchase price cost base
    1B 00     // Retire vehicle early, this many years before the end of phase 2
    1C 02     // Miscellaneous vehicle flags
    1D 10 00          // Refittable cargo classes
    1E EF 03          // Non-refittable cargo classes
    1F 60 B3 0A 00    // Long format introduction date  
  757 * 67	 00 01 19 01 7C
    00 00 00  // intro date 
    02 20     // reliability 
    03 11     // vehicle life 
    04 23     // class life 
    06 00     // climate 
    07 05     // load amount 
    08 80     // speed in mph * 3.2
    09 1E     // running cost factor 
    0A 48 4C 00 00 13 14 14 18        // running cost base 
    0E FF     // sprite ID
    0F \b42     // capacity
    10 FF     // cargo type
    11 34     // cost factor
    12 17     // sound effect
    15 20     // speed in mph * 0.8
    16 C0 20 00 68     // Bit mask of cargo types available for refitting
    // flips 1D / 1E values: excludes fruit, grain, wheat, maize; includes Wood, tropical wood
    17 16     // Callback flags bit mask
[...]
 2255 * 33	 04 01 7F 01 D5 "Rockchuck Peak Mining Truck" 00  
 2256 * 4	 01 01 07 08
  // Rockchuck Peak 95t hauler empty
 2257 sprites/mining_trucks/95t_mining_truck.pcx 34 10 01 24 12 -5 -13
 2258 sprites/mining_trucks/95t_mining_truck.pcx 66 10 09 20 26 -15 -8
 2259 sprites/mining_trucks/95t_mining_truck.pcx 98 10 01 16 36 -18 -8
 2260 sprites/mining_trucks/95t_mining_truck.pcx 146 10 09 20 26 -11 -9
 2261 sprites/mining_trucks/95t_mining_truck.pcx 178 10 01 24 12 -5 -13
 2262 sprites/mining_trucks/95t_mining_truck.pcx 210 10 09 20 26 -16 -9
 2263 sprites/mining_trucks/95t_mining_truck.pcx 242 10 01 16 36 -20 -10
 2264 sprites/mining_trucks/95t_mining_truck.pcx 290 10 09 20 26 -10 -11
  // Rockchuck Peak 95t hauler coal
 2265 sprites/mining_trucks/95t_mining_truck_coal.pcx 34 10 01 24 12 -5 -13
 2266 sprites/mining_trucks/95t_mining_truck_coal.pcx 66 10 09 20 26 -15 -8
 2267 sprites/mining_trucks/95t_mining_truck_coal.pcx 98 10 01 16 36 -18 -8
 2268 sprites/mining_trucks/95t_mining_truck_coal.pcx 146 10 09 20 26 -11 -9
 2269 sprites/mining_trucks/95t_mining_truck_coal.pcx 178 10 01 24 12 -5 -13
 2270 sprites/mining_trucks/95t_mining_truck_coal.pcx 210 10 09 20 26 -16 -9
 2271 sprites/mining_trucks/95t_mining_truck_coal.pcx 242 10 01 16 36 -20 -10
 2272 sprites/mining_trucks/95t_mining_truck_coal.pcx 290 10 09 20 26 -10 -11
  // Rockchuck Peak 95t hauler iron
 2273 sprites/mining_trucks/95t_mining_truck_iron.pcx 34 10 01 24 12 -5 -13
 2274 sprites/mining_trucks/95t_mining_truck_iron.pcx 66 10 09 20 26 -15 -8
 2275 sprites/mining_trucks/95t_mining_truck_iron.pcx 98 10 01 16 36 -18 -8
 2276 sprites/mining_trucks/95t_mining_truck_iron.pcx 146 10 09 20 26 -11 -9
 2277 sprites/mining_trucks/95t_mining_truck_iron.pcx 178 10 01 24 12 -5 -13
 2278 sprites/mining_trucks/95t_mining_truck_iron.pcx 210 10 09 20 26 -16 -9
 2279 sprites/mining_trucks/95t_mining_truck_iron.pcx 242 10 01 16 36 -20 -10
 2280 sprites/mining_trucks/95t_mining_truck_iron.pcx 290 10 09 20 26 -10 -11
  // Rockchuck Peak 95t hauler brown
 2281 sprites/mining_trucks/95t_mining_truck_brown.pcx 34 10 01 24 12 -5 -13
 2282 sprites/mining_trucks/95t_mining_truck_brown.pcx 66 10 09 20 26 -15 -8
 2283 sprites/mining_trucks/95t_mining_truck_brown.pcx 98 10 01 16 36 -18 -8
 2284 sprites/mining_trucks/95t_mining_truck_brown.pcx 146 10 09 20 26 -11 -9
 2285 sprites/mining_trucks/95t_mining_truck_brown.pcx 178 10 01 24 12 -5 -13
 2286 sprites/mining_trucks/95t_mining_truck_brown.pcx 210 10 09 20 26 -16 -9
 2287 sprites/mining_trucks/95t_mining_truck_brown.pcx 242 10 01 16 36 -20 -10
 2288 sprites/mining_trucks/95t_mining_truck_brown.pcx 290 10 09 20 26 -10 -11
  // Rockchuck Peak 95t hauler white
 2289 sprites/mining_trucks/95t_mining_truck_white.pcx 34 10 01 24 12 -5 -13
 2290 sprites/mining_trucks/95t_mining_truck_white.pcx 66 10 09 20 26 -15 -8
 2291 sprites/mining_trucks/95t_mining_truck_white.pcx 98 10 01 16 36 -18 -8
 2292 sprites/mining_trucks/95t_mining_truck_white.pcx 146 10 09 20 26 -11 -9
 2293 sprites/mining_trucks/95t_mining_truck_white.pcx 178 10 01 24 12 -5 -13
 2294 sprites/mining_trucks/95t_mining_truck_white.pcx 210 10 09 20 26 -16 -9
 2295 sprites/mining_trucks/95t_mining_truck_white.pcx 242 10 01 16 36 -20 -10
 2296 sprites/mining_trucks/95t_mining_truck_white.pcx 290 10 09 20 26 -10 -11
  // Rockchuck Peak 95t hauler red
 2297 sprites/mining_trucks/95t_mining_truck_red.pcx 34 10 01 24 12 -5 -13
 2298 sprites/mining_trucks/95t_mining_truck_red.pcx 66 10 09 20 26 -15 -8
 2299 sprites/mining_trucks/95t_mining_truck_red.pcx 98 10 01 16 36 -18 -8
 2300 sprites/mining_trucks/95t_mining_truck_red.pcx 146 10 09 20 26 -11 -9
 2301 sprites/mining_trucks/95t_mining_truck_red.pcx 178 10 01 24 12 -5 -13
 2302 sprites/mining_trucks/95t_mining_truck_red.pcx 210 10 09 20 26 -16 -9
 2303 sprites/mining_trucks/95t_mining_truck_red.pcx 242 10 01 16 36 -20 -10
 2304 sprites/mining_trucks/95t_mining_truck_red.pcx 290 10 09 20 26 -10 -11
  // Rockchuck Peak 95t hauler grey 
 2305 sprites/mining_trucks/95t_mining_truck_grey.pcx 34 10 01 24 12 -5 -13
 2306 sprites/mining_trucks/95t_mining_truck_grey.pcx 66 10 09 20 26 -15 -8
 2307 sprites/mining_trucks/95t_mining_truck_grey.pcx 98 10 01 16 36 -18 -8
 2308 sprites/mining_trucks/95t_mining_truck_grey.pcx 146 10 09 20 26 -11 -9
 2309 sprites/mining_trucks/95t_mining_truck_grey.pcx 178 10 01 24 12 -5 -13
 2310 sprites/mining_trucks/95t_mining_truck_grey.pcx 210 10 09 20 26 -16 -9
 2311 sprites/mining_trucks/95t_mining_truck_grey.pcx 242 10 01 16 36 -20 -10
 2312 sprites/mining_trucks/95t_mining_truck_grey.pcx 290 10 09 20 26 -10 -11
 2313 * 13	 02 01 A1 02 02 00 00 01 00 00 00 01 00
 2314 * 13	 02 01 A2 02 02 00 00 02 00 00 00 02 00
 2315 * 13	 02 01 A3 02 02 00 00 03 00 00 00 03 00
 2316 * 13	 02 01 A4 02 02 00 00 04 00 00 00 04 00
 2317 * 13	 02 01 A5 02 02 00 00 05 00 00 00 05 00
 2318 * 13	 02 01 A6 02 02 00 00 06 00 00 00 06 00
 2319 * 4	 01 01 01 04 // depot sprites
 2320 * 1	 00
 2321 * 1	 00
 2322 sprites/mining_trucks/95t_mining_truck.pcx 370 14 01 12 36 -14 -6
 2323 * 1	 00
 2324 * 9	 02 01 AF 01 01 00 00 00 00
 2325 * 25	 03 01 01 D5 // Action 3 
   06 // number of cargo types to support
   01 A1 00
   08 A2 00
   0E A3 00 
   11 A4 00
   17 A5 00
   FF AF 00 // buy menu sprites
   A6 00 // default sprites

  // Camelback Mountain Mining Truck  240t		2001-2050	37mph
 2326 * 67	 00 01 19 01 D6
    00 \w1-1-1920  // intro date
    02 20     // reliability
    03 19     // vehicle life
    04 19     // class life
    06 0F     // climate
    07 05     // load amount
    08 \b119     // speed in mph * 3.2
    09 50     // running cost factor
    0A 48 4C 00 00 13 28 14 C8        // running cost base
    0E FF     // sprite ID
    0F 00     // capacity
    10 FF     // cargo type 
    11 5D     // cost factor
    12 19     // sound effect
    15 \b30     // speed in mph * 0.8
    16 40 00 00 28     // Bit mask of cargo types available for refitting
    // flips 1D / 1E values: excludes grain, wheat, maize
    17 12     // Callback flags bit mask
    1A 00     // Refit cost, using 25% of the purchase price cost base
    1B 00     // Retire vehicle early, this many years before the end of phase 2
    1C 02     // Miscellaneous vehicle flags
    1D 10 00          // Refittable cargo classes
    1E EF 03          // Non-refittable cargo classes
    1F 8D
    26 0B 00    // Long format introduction date
 2327 * 37	 04 01 7F 01 D6 "Camelback Mountain Mining Truck" 00
 2328 * 43	 04 01 81 01 D4 D0 "Hauls: " 8A "Two 120t belly-dump trailers" 00 // (240t total)
 2329 * 4	 01 01 01 08
  // Kilimanjaro (Articulated) dump truck empty
 2330 sprites/off_highway_trucks/mining_truck_chassis.pcx 34 10 01 24 12 -5 -16
 2331 sprites/off_highway_trucks/mining_truck_chassis.pcx 66 10 09 20 26 -15 -8
 2332 sprites/off_highway_trucks/mining_truck_chassis.pcx 98 10 01 16 36 -18 -10
 2333 sprites/off_highway_trucks/mining_truck_chassis.pcx 146 10 09 20 26 -11 -9
 2334 sprites/off_highway_trucks/mining_truck_chassis.pcx 178 10 01 24 12 -5 -15
 2335 sprites/off_highway_trucks/mining_truck_chassis.pcx 210 10 09 20 26 -16 -9
 2336 sprites/off_highway_trucks/mining_truck_chassis.pcx 242 10 01 16 36 -20 -10
 2337 sprites/off_highway_trucks/mining_truck_chassis.pcx 290 10 09 20 26 -10 -11
 2338 * 9	 02 01 A1 01 01 00 00 00 00 //normal action2 defining graphics with no loading/loaded stages
 2339 * 4	 01 01 01 04
 2340 * 1	 00
 2341 * 1	 00
 2342 sprites/off_highway_trucks/mining_truck_chassis.pcx 370 14 01 12 36 -14 -6
 2343 * 1	 00
 2344 * 9	 02 01 F1 // action2 buy menu sprites 
      01 // number loading states
      01 // number loaded states
      00 00 // loading sprites
      00 00 // loaded sprites
 2345 * 14	 02 01 F0 // varaction 2 handles buy menu callbacks 
                 81 0C 00 FF //check byte value of variable 81 (no bit shift, FF andmask)
                 01 // range
                   D4 80 23 23 // text for vehicle window
                 F1 00 //otherwise go to next action 2 ID 
 2346 * 22	 02 01 B0 //ID B0
               81 10 00 FF //check byte value of variable 10 (no bit shift, FF andmask)
               03 //check one ranges
               07 80 01 01 //give callback result
               05 80 02 02 //give callback result
               07 80 03 03 //give callback result
               FF FF //otherwise end the callback chain
 2347 * 14	 02 01 B6 // provide correct refit/capacity information in buy menu (credits to DJ Nekkid for solution)
               82 40 10 FF // check vehicle length    
               01 // check one range
                 F0 00 00 00 // if length is 0 use purchase menu sprite
               A1 00 // else go to action 2 to apply graphics
 2348 * 18	 02 01 B1 //
               81 0C 00 FF // handle callbacks
               02 // range
                 02 80 11 11 // vehicle length CB
                 B0 00 16 16 // articulated vehicle building instructions
               B6 00 //otherwise go to next action 2 ID 
 2349 * 7	 03 01 01 D6  // Action 3
    00  // Number of different cargo types to support 
    B1 00   // Action 2 ID above  

  // Kilimanjaro Mining Hauler  160t	1200hp	1990-2050	57mph
 2350 * 67	 00 01 19 01 D7
    00 \w1-1-1920  // intro date
    02 20     // reliability
    03 19     // vehicle life
    04 19     // class life
    06 0F     // climate
    07 05     // load amount
    08 \b182     // speed in mph * 3.2
    09 50     // running cost factor
    0A 48 4C 00 00 13 28 14 C8        // running cost base
    0E FF     // sprite ID
    0F \b160     // capacity
    10 FF     // cargo type 
    11 5D     // cost factor
    12 19     // sound effect
    15 \b46     // speed in mph * 0.8
    16 40 00 00 28     // Bit mask of cargo types available for refitting
    // flips 1D / 1E values: excludes grain, wheat, maize
    17 00     // Callback flags bit mask
    1A 00     // Refit cost, using 25% of the purchase price cost base
    1B 00     // Retire vehicle early, this many years before the end of phase 2
    1C 02     // Miscellaneous vehicle flags
    1D 10 00          // Refittable cargo classes
    1E EF 03          // Non-refittable cargo classes
    1F \d726840   // Long format introduction date (dword)
 2351 * 39	 04 01 7F 01 D7 "Kilimanjaro Unitised Mining Truck" 00
 2352 * 4	 01 01 07 08
  // unitised hauler empty
 2353 sprites/mining_trucks/unitised_mining_truck.pcx 34 10 01 24 12 -5 -15
 2354 sprites/mining_trucks/unitised_mining_truck.pcx 66 10 01 22 30 -17 -10
 2355 sprites/mining_trucks/unitised_mining_truck.pcx 98 10 01 16 36 -14 -9
 2356 sprites/mining_trucks/unitised_mining_truck.pcx 146 10 01 22 30 -10 -10
 2357 sprites/mining_trucks/unitised_mining_truck.pcx 178 10 01 24 12 -5 -13
 2358 sprites/mining_trucks/unitised_mining_truck.pcx 210 10 01 22 30 -18 -11
 2359 sprites/mining_trucks/unitised_mining_truck.pcx 242 10 01 16 36 -14 -10
 2360 sprites/mining_trucks/unitised_mining_truck.pcx 290 10 01 22 30 -9 -11
  // unitised hauler coal
 2361 sprites/mining_trucks/unitised_mining_truck_coal.pcx 34 10 01 24 12 -5 -15
 2362 sprites/mining_trucks/unitised_mining_truck_coal.pcx 66 10 01 22 30 -17 -10
 2363 sprites/mining_trucks/unitised_mining_truck_coal.pcx 98 10 01 16 36 -14 -9
 2364 sprites/mining_trucks/unitised_mining_truck_coal.pcx 146 10 01 22 30 -10 -10
 2365 sprites/mining_trucks/unitised_mining_truck_coal.pcx 178 10 01 24 12 -5 -13
 2366 sprites/mining_trucks/unitised_mining_truck_coal.pcx 210 10 01 22 30 -18 -11
 2367 sprites/mining_trucks/unitised_mining_truck_coal.pcx 242 10 01 16 36 -14 -10
 2368 sprites/mining_trucks/unitised_mining_truck_coal.pcx 290 10 01 22 30 -9 -11
  // unitised hauler iron 
 2369 sprites/mining_trucks/unitised_mining_truck_iron.pcx 34 10 01 24 12 -5 -15
 2370 sprites/mining_trucks/unitised_mining_truck_iron.pcx 66 10 01 22 30 -17 -10
 2371 sprites/mining_trucks/unitised_mining_truck_iron.pcx 98 10 01 16 36 -14 -9
 2372 sprites/mining_trucks/unitised_mining_truck_iron.pcx 146 10 01 22 30 -10 -10
 2373 sprites/mining_trucks/unitised_mining_truck_iron.pcx 178 10 01 24 12 -5 -13
 2374 sprites/mining_trucks/unitised_mining_truck_iron.pcx 210 10 01 22 30 -18 -11
 2375 sprites/mining_trucks/unitised_mining_truck_iron.pcx 242 10 01 16 36 -14 -10
 2376 sprites/mining_trucks/unitised_mining_truck_iron.pcx 290 10 01 22 30 -9 -11
  // unitised hauler brown
 2377 sprites/mining_trucks/unitised_mining_truck_brown.pcx 34 10 01 24 12 -5 -15
 2378 sprites/mining_trucks/unitised_mining_truck_brown.pcx 66 10 01 22 30 -17 -10
 2379 sprites/mining_trucks/unitised_mining_truck_brown.pcx 98 10 01 16 36 -14 -9
 2380 sprites/mining_trucks/unitised_mining_truck_brown.pcx 146 10 01 22 30 -10 -10
 2381 sprites/mining_trucks/unitised_mining_truck_brown.pcx 178 10 01 24 12 -5 -13
 2382 sprites/mining_trucks/unitised_mining_truck_brown.pcx 210 10 01 22 30 -18 -11
 2383 sprites/mining_trucks/unitised_mining_truck_brown.pcx 242 10 01 16 36 -14 -10
 2384 sprites/mining_trucks/unitised_mining_truck_brown.pcx 290 10 01 22 30 -9 -11
  // unitised hauler white 
 2385 sprites/mining_trucks/unitised_mining_truck_white.pcx 34 10 01 24 12 -5 -15
 2386 sprites/mining_trucks/unitised_mining_truck_white.pcx 66 10 01 22 30 -17 -10
 2387 sprites/mining_trucks/unitised_mining_truck_white.pcx 98 10 01 16 36 -14 -9
 2388 sprites/mining_trucks/unitised_mining_truck_white.pcx 146 10 01 22 30 -10 -10
 2389 sprites/mining_trucks/unitised_mining_truck_white.pcx 178 10 01 24 12 -5 -13
 2390 sprites/mining_trucks/unitised_mining_truck_white.pcx 210 10 01 22 30 -18 -11
 2391 sprites/mining_trucks/unitised_mining_truck_white.pcx 242 10 01 16 36 -14 -10
 2392 sprites/mining_trucks/unitised_mining_truck_white.pcx 290 10 01 22 30 -9 -11
  // unitised hauler red
 2393 sprites/mining_trucks/unitised_mining_truck_red.pcx 34 10 01 24 12 -5 -15
 2394 sprites/mining_trucks/unitised_mining_truck_red.pcx 66 10 01 22 30 -17 -10
 2395 sprites/mining_trucks/unitised_mining_truck_red.pcx 98 10 01 16 36 -14 -9
 2396 sprites/mining_trucks/unitised_mining_truck_red.pcx 146 10 01 22 30 -10 -10
 2397 sprites/mining_trucks/unitised_mining_truck_red.pcx 178 10 01 24 12 -5 -13
 2398 sprites/mining_trucks/unitised_mining_truck_red.pcx 210 10 01 22 30 -18 -11
 2399 sprites/mining_trucks/unitised_mining_truck_red.pcx 242 10 01 16 36 -14 -10
 2400 sprites/mining_trucks/unitised_mining_truck_red.pcx 290 10 01 22 30 -9 -11
  // unitised hauler grey
 2401 sprites/mining_trucks/unitised_mining_truck_grey.pcx 34 10 01 24 12 -5 -15
 2402 sprites/mining_trucks/unitised_mining_truck_grey.pcx 66 10 01 22 30 -17 -10
 2403 sprites/mining_trucks/unitised_mining_truck_grey.pcx 98 10 01 16 36 -14 -9
 2404 sprites/mining_trucks/unitised_mining_truck_grey.pcx 146 10 01 22 30 -10 -10
 2405 sprites/mining_trucks/unitised_mining_truck_grey.pcx 178 10 01 24 12 -5 -13
 2406 sprites/mining_trucks/unitised_mining_truck_grey.pcx 210 10 01 22 30 -18 -11
 2407 sprites/mining_trucks/unitised_mining_truck_grey.pcx 242 10 01 16 36 -14 -10
 2408 sprites/mining_trucks/unitised_mining_truck_grey.pcx 290 10 01 22 30 -9 -11
 2409 * 13	 02 01 A1 02 02 00 00 01 00 00 00 01 00
 2410 * 13	 02 01 A2 02 02 00 00 02 00 00 00 02 00
 2411 * 13	 02 01 A3 02 02 00 00 03 00 00 00 03 00
 2412 * 13	 02 01 A4 02 02 00 00 04 00 00 00 04 00
 2413 * 13	 02 01 A5 02 02 00 00 05 00 00 00 05 00
 2414 * 13	 02 01 A6 02 02 00 00 06 00 00 00 06 00
 2415 * 4	 01 01 01 04
 2416 * 1	 00
 2417 * 1	 00
 2418 sprites/mining_trucks/unitised_mining_truck.pcx 370 14 01 12 36 -14 -6
 2419 * 1	 00
 2420 * 9	 02 01 AF 01 01 00 00 00 00
 2421 * 25	 03 01 01 D7 // Action 3 
   06 // number of cargo types
   01 A1 00
   08 A2 00
   0E A3 00
   11 A4 00
   17 A5 00
   FF AF 00 // buy menu sprites
   A6 00 // default sprites
  // --------------------------- end of Dump trucks / Mining Haulers --------------------- //

  // --------------------------- Off-Highway Trucks --------------------- //

  // Cascade Off-Highway Truck  90t		1960-1982		30mph
 2422 * 67	 00 01 19 01 23
    00 \w1-1-1920  // intro date
    02 20     // reliability
    03 19     // vehicle life
    04 19     // class life
    06 00     // climate  !! set to 00 to hide this vehicle until finished
    07 05     // load amount
    08 \b96     // speed in mph * 3.2
    09 50     // running cost factor
    0A 48 4C 00 00 13 28 14 C8        // running cost base
    0E FF     // sprite ID
    0F 00     // capacity
    10 FF     // cargo type 
    11 5D     // cost factor
    12 19     // sound effect
    15 \b24     // speed in mph * 0.8
    16 40 00 00 28     // Bit mask of cargo types available for refitting
    // flips 1D / 1E values: excludes grain, wheat, maize
    17 16     // Callback flags bit mask
    1A 00     // Refit cost, using 25% of the purchase price cost base
    1B 00     // Retire vehicle early, this many years before the end of phase 2
    1C 02     // Miscellaneous vehicle flags
    1D 10 00          // Refittable cargo classes
    1E EF 03          // Non-refittable cargo classes
    1F 72 EC 0A 00    // Long format introduction date
 2423 * 31	 04 01 7F 01 23 "Cascade Off-Highway Truck" 00
 2424 * 4	 01 01 01 08
  // Cascade off-highway truck empty
 2425 sprites/off_highway_trucks/1960_truck_3_axle.pcx 34 10 01 24 12 -5 -18
 2426 sprites/off_highway_trucks/1960_truck_3_axle.pcx 66 10 09 20 26 -17 -8
 2427 sprites/off_highway_trucks/1960_truck_3_axle.pcx 98 10 01 16 36 -10 -10
 2428 sprites/off_highway_trucks/1960_truck_3_axle.pcx 146 10 09 20 26 -11 -9
 2429 sprites/off_highway_trucks/1960_truck_3_axle.pcx 178 10 01 24 12 -5 -16
 2430 sprites/off_highway_trucks/1960_truck_3_axle.pcx 210 10 09 20 26 -16 -9
 2431 sprites/off_highway_trucks/1960_truck_3_axle.pcx 242 10 01 16 36 -18 -10
 2432 sprites/off_highway_trucks/1960_truck_3_axle.pcx 290 10 09 20 26 -8 -11
 2433 * 9	 02 01 A1 01 01 00 00 00 00 //normal action2 defining graphics with no loading/loaded stages
 2434 * 4	 01 01 01 04
 2435 * 1	 00
 2436 * 1	 00
 2437 sprites/off_highway_trucks/1960_truck_3_axle.pcx 242 10 01 16 36 -18 -8
 2438 * 1	 00
 2439 * 14	 02 01 B0 //ID B0
               81 10 00 FF //check byte value of variable 10 (no bit shift, FF andmask)
               01 //check one ranges
               06 80 01 01 //give callback result
               FF FF //otherwise end the callback chain
 2440 * 14	 02 01 B1 //ID B1
               81 0C 00 FF //check byte value of variable 81 (no bit shift, FF andmask)
               01 //check one range
               B0 00 16 16 //go to ID B0 for value 16 (ie. go to the articulated vehicle building instructions)
               A1 00 //otherwise go to ID A1 (ie. apply vehicle graphics)
 2441 * 7	 03   // Action 3
    01  // RV 
    01  // Number of vehicles this action associate graphics with 
    23  // Vehicle ID
    00  // Number of different cargo types to support  
    B1 00   // Action 2 ID above  
// --------------------------- end of Off-Highway Trucks --------------------- //
//!!Warning (97): Set 00 defined by the previous Action 1 (sprite 2434) has not been used.
//!!For feature 1 the following cargoIDs have not been used since their most recent definition:
//!!06 (last defined at sprite 1775)
//!!0C (last defined at sprite 405)
//!!0D (last defined at sprite 406)
//!!0F (last defined at sprite 594)
//!!17 (last defined at sprite 1777)
//!!18 (last defined at sprite 242)
//!!19 (last defined at sprite 243)
//!!26 (last defined at sprite 1886)
//!!2C (last defined at sprite 516)
//!!2D (last defined at sprite 517)
//!!2F (last defined at sprite 671)
//!!37 (last defined at sprite 1888)
