// Automatically generated by GRFCODEC. Do not modify!
// (Info version 7)
// Format: spritenum pcxfile xpos ypos compression ysize xsize xrel yrel
    0 * 4	 97 09 00 00
//!!Warning (147): Offset 6: Insufficient stack data for control character 7B.
    1 * 128	 08 06 "AP" 12 01 "{{GRF_TITLE}}" 00 "Heavy equipment Set"
	 "in dual company colours."
	 "Brought to you by"
	 "andythenorth and Richard Wheeler (Zephyris)"
	 "2008" 00

    2 * 134	 00 08 01 20 00 09 // Cargo translation table
      "PASS" "COAL" "MAIL" "OIL_"     // 00 - 03, 01 - 08
      "LVST" "GOOD" "GRAI" "WOOD"     // 04 - 07, 10 - 80
      "IORE" "STEL" "VALU" "PAPR"     // 08 - 0B, 01^ - 08^
      "FOOD" "FRUT" "CORE" "WATR"     // 0C - 0F, 10^ - 80^
      "RUBR" "___A" "___B" "___C"     // 10 - 13, 01^^ - 08^^
      "___D" "___E" "___F" "___G"     // 14 - 17, 10^^ - 80^^
      "___H" "___I" "___J" "WHEA"     // 18 - 1B, 01^^^ - 08^^^
      "GOLD" "MAIZ" "TWOD" "DIAM"     // 1C - 1F, 10^^^ - 80^^^

   // ----------- Drawbars for Trailers -------------//
   // Smaller Drawbar
    3 * 67	 00 01 19 01 04 // Action 0
      00 00 00  // intro date
      02 20     // reliability
      03 19     // vehicle life
      04 23     // class life
      06 00     // climate
      07 05     // load amount
      08 E0     // speed in mph * 3.2
      09 08     // running cost factor
      0A 48 4C 00 00 13 00 14 20 // running cost base
      0E FF     // sprite ID
      0F 00     // capacity
      10 FF     // cargo type
      11 00     // cost factor
      12 00     // sound effect
      15 38     // speed in mph * 0.8
      16 00 00 00 00    // Bit mask of cargo types available for refitting
      17 02     // Callback flags bit mask
      1A 00     // Refit cost, using 25% of the purchase price cost base
      1B 00     // Retire vehicle early, this many years before the end of phase 2
      1C 02     // Miscellaneous vehicle flags     
      1D FF 03     // Refittable cargo classes 
      1E 01 00     // Non-refittable cargo classes
      1F 60 B3 0A 00   // Long format introduction date     
    4 * 36	 04 01 7F 01 04 "[Smaller Drawbar for Trailers]" 00
    5 * 4	 01 01 01 08
    6 sprites/drawbar.pcx 34 10 01 24 12 -5 -16
    7 sprites/drawbar.pcx 66 10 09 20 26 -12 -11
    8 sprites/drawbar.pcx 98 10 01 16 36 -18 -8
    9 sprites/drawbar.pcx 146 10 09 20 26 -4 -5
   10 sprites/drawbar.pcx 178 10 01 24 12 -8 -8
   11 sprites/drawbar.pcx 210 10 09 20 26 -26 -4
   12 sprites/drawbar.pcx 242 10 01 16 36 -28 -9
   13 sprites/drawbar.pcx 290 10 09 20 26 -16 -15
   14 * 9	 02 01 BB   01 01   00 00    00 00
   15 * 14	 02 01 AA  // handle callbacks
                 81 0C 00 FF // check variable 0C
                 01 // range
                  05 80 11 11 // vehicle length callback
                 BB 00
   16 * 7	 03 01 01 04 // Action 3
      00  // Number of different cargo types to support  
      AA 00 // default cargo

   // Larger Drawbar
   17 * 67	 00 01 19 01 05 // Action 0
      00 00 00  // intro date
      02 20     // reliability
      03 19     // vehicle life
      04 23     // class life
      06 00     // climate
      07 05     // load amount
      08 E0     // speed in mph * 3.2
      09 08     // running cost factor
      0A 48 4C 00 00 13 00 14 20 // running cost base
      0E FF     // sprite ID
      0F 00     // capacity
      10 FF     // cargo type
      11 00     // cost factor
      12 00     // sound effect
      15 38     // speed in mph * 0.8
      16 00 00 00 00    // Bit mask of cargo types available for refitting
      17 02     // Callback flags bit mask
      1A 00     // Refit cost, using 25% of the purchase price cost base
      1B 00     // Retire vehicle early, this many years before the end of phase 2
      1C 02     // Miscellaneous vehicle flags     
      1D FF 03     // Refittable cargo classes 
      1E 01 00     // Non-refittable cargo classes
      1F 60 B3 0A 00   // Long format introduction date     
   18 * 28	 04 01 7F 01 05 "[Drawbar for Trailers]" 00
   19 * 4	 01 01 01 08
   20 sprites/drawbar.pcx 34 10 01 24 12 -5 -16
   21 sprites/drawbar.pcx 66 10 09 20 26 -12 -11
   22 sprites/drawbar.pcx 98 10 01 16 36 -18 -8
   23 sprites/drawbar.pcx 146 10 09 20 26 -4 -5
   24 sprites/drawbar.pcx 178 10 01 24 12 -8 -8
   25 sprites/drawbar.pcx 210 10 09 20 26 -26 -4
   26 sprites/drawbar.pcx 242 10 01 16 36 -22 -8
   27 sprites/drawbar.pcx 290 10 09 20 26 -10 -10
   28 * 9	 02 01 BB   01 01   00 00    00 00
   29 * 14	 02 01 AA  // handle callbacks
                 81 0C 00 FF // check variable 0C
                 01 // range
                  05 80 11 11 // vehicle length callback
                 BB 00
   30 * 7	 03 01 01 05 // Action 3
      00  // Number of different cargo types to support  
      AA 00 // default cargo

   // ----------------- end trailer drawbars -------------------//


    // ------------ Medium Trailers ------------------ //

   // Medium Trailers

   31 * 67	 00 01 19 01 00
      00 00 00  // intro date
      02 20     // reliability
      03 19     // vehicle life
      04 23     // class life
      06 00     // climate
      07 05     // load amount
      08 E0     // speed in mph * 3.2
      09 08     // running cost factor
      0A 48 4C 00 00 13 00 14 20    // running cost base
      0E FF     // sprite ID
      0F \b19     // capacity
      10 06     // cargo type
      11 00     // cost factor
      12 00     // sound effect
      15 38     // speed in mph * 0.8
      16 00 00 00 00    // Bit mask of cargo types available for refitting
      17 30     // Callback flags bit mask
      1A 00     // Refit cost, using 25% of the purchase price cost base
      1B 00     // Retire vehicle early, this many years before the end of phase 2
      1C 02     // Miscellaneous vehicle flags 
      1D FF 03      // Refittable cargo classes
      1E 01 00      // Non-refittable cargo classes
      1F 60 B3 0A 00    // Long format introduction date     
   32 * 30	 04 01 7F 01 00 "[Generic Medium Trailer]" 00
// define additional text suffixes
   33 * 28	 04 00 81 02 00 D0
            		" (refit 1)" 00	//
               	" (refit 2)" 00	//
   // Medium Goods Trailer
   34 * 4	 01 01 01 08
   // Medium box trailer
   35 sprites/standard_trailers/medium_trailer_tandem.pcx 34 570 01 24 12 -3 -10
   36 sprites/standard_trailers/medium_trailer_tandem.pcx 66 570 01 20 26 -11 -9
   37 sprites/standard_trailers/medium_trailer_tandem.pcx 98 570 01 16 36 -14 -6
   38 sprites/standard_trailers/medium_trailer_tandem.pcx 146 570 01 20 26 -9 -7
   39 sprites/standard_trailers/medium_trailer_tandem.pcx 178 570 01 24 12 -9 -16
   40 sprites/standard_trailers/medium_trailer_tandem.pcx 210 570 01 20 26 -17 -7
   41 sprites/standard_trailers/medium_trailer_tandem.pcx 242 570 01 16 36 -30 -8
   42 sprites/standard_trailers/medium_trailer_tandem.pcx 290 570 01 20 26 -13 -10
   43 * 9	 02 01 05   01 01   00 00    00 00 // box
   // Medium end dump trailer - empty
   44 * 4	 01 01 0D 08
   45 sprites/standard_trailers/medium_trailer_tandem.pcx 34 50 01 24 12 -3 -10
   46 sprites/standard_trailers/medium_trailer_tandem.pcx 66 50 09 20 26 -11 -9
   47 sprites/standard_trailers/medium_trailer_tandem.pcx 98 50 01 16 36 -14 -6
   48 sprites/standard_trailers/medium_trailer_tandem.pcx 146 50 09 20 26 -9 -7
   49 sprites/standard_trailers/medium_trailer_tandem.pcx 178 50 01 24 12 -9 -16
   50 sprites/standard_trailers/medium_trailer_tandem.pcx 210 50 09 20 26 -17 -7
   51 sprites/standard_trailers/medium_trailer_tandem.pcx 242 50 01 16 36 -30 -8
   52 sprites/standard_trailers/medium_trailer_tandem.pcx 290 50 09 20 26 -13 -10
   // Medium end dump - iron ore, loading  !! this isn't iron ore??
   53 sprites/standard_trailers/medium_trailer_tandem.pcx 34 490 01 24 12 -3 -10
   54 sprites/standard_trailers/medium_trailer_tandem.pcx 66 490 09 20 20 -11 -9
   55 sprites/standard_trailers/medium_trailer_tandem.pcx 98 490 01 16 36 -14 -6
   56 sprites/standard_trailers/medium_trailer_tandem.pcx 146 490 09 20 26 -9 -7
   57 sprites/standard_trailers/medium_trailer_tandem.pcx 178 490 01 24 12 -9 -16
   58 sprites/standard_trailers/medium_trailer_tandem.pcx 210 490 09 20 26 -17 -7
   59 sprites/standard_trailers/medium_trailer_tandem.pcx 242 490 01 16 36 -30 -8
   60 sprites/standard_trailers/medium_trailer_tandem.pcx 290 490 09 20 26 -13 -10
   // Medium end dump - iron ore, loaded  !! this isn't iron ore??
   61 sprites/standard_trailers/medium_trailer_tandem.pcx 34 530 01 24 12 -3 -10
   62 sprites/standard_trailers/medium_trailer_tandem.pcx 66 530 09 20 20 -11 -9
   63 sprites/standard_trailers/medium_trailer_tandem.pcx 98 530 01 16 36 -14 -6
   64 sprites/standard_trailers/medium_trailer_tandem.pcx 146 530 09 20 26 -9 -7
   65 sprites/standard_trailers/medium_trailer_tandem.pcx 178 530 01 24 12 -9 -16
   66 sprites/standard_trailers/medium_trailer_tandem.pcx 210 530 09 20 26 -17 -7
   67 sprites/standard_trailers/medium_trailer_tandem.pcx 242 530 01 16 36 -30 -8
   68 sprites/standard_trailers/medium_trailer_tandem.pcx 290 530 09 20 26 -13 -10
   // Medium end dump - coal, loading
   69 sprites/standard_trailers/medium_trailer_tandem.pcx 34 170 01 24 12 -3 -10
   70 sprites/standard_trailers/medium_trailer_tandem.pcx 66 170 09 20 26 -11 -9
   71 sprites/standard_trailers/medium_trailer_tandem.pcx 98 170 01 16 36 -14 -6
   72 sprites/standard_trailers/medium_trailer_tandem.pcx 146 170 09 20 26 -9 -7
   73 sprites/standard_trailers/medium_trailer_tandem.pcx 178 170 01 24 12 -9 -16
   74 sprites/standard_trailers/medium_trailer_tandem.pcx 210 170 09 20 26 -17 -7
   75 sprites/standard_trailers/medium_trailer_tandem.pcx 242 170 01 16 36 -30 -8
   76 sprites/standard_trailers/medium_trailer_tandem.pcx 290 170 09 20 26 -13 -10
   // Medium end dump - coal, loaded
   77 sprites/standard_trailers/medium_trailer_tandem.pcx 34 210 01 24 12 -3 -10
   78 sprites/standard_trailers/medium_trailer_tandem.pcx 66 210 09 20 26 -11 -9
   79 sprites/standard_trailers/medium_trailer_tandem.pcx 98 210 01 16 36 -14 -6
   80 sprites/standard_trailers/medium_trailer_tandem.pcx 146 210 09 20 26 -9 -7
   81 sprites/standard_trailers/medium_trailer_tandem.pcx 178 210 01 24 12 -9 -16
   82 sprites/standard_trailers/medium_trailer_tandem.pcx 210 210 09 20 26 -17 -7
   83 sprites/standard_trailers/medium_trailer_tandem.pcx 242 210 01 16 36 -30 -8
   84 sprites/standard_trailers/medium_trailer_tandem.pcx 290 210 09 20 26 -13 -10
   // Medium end dump - grain, loading
   85 sprites/standard_trailers/medium_trailer_tandem.pcx 34 250 01 24 12 -3 -10
   86 sprites/standard_trailers/medium_trailer_tandem.pcx 66 250 09 20 26 -11 -9
   87 sprites/standard_trailers/medium_trailer_tandem.pcx 98 250 01 16 36 -14 -6
   88 sprites/standard_trailers/medium_trailer_tandem.pcx 146 250 09 20 26 -9 -7
   89 sprites/standard_trailers/medium_trailer_tandem.pcx 178 250 01 24 12 -9 -16
   90 sprites/standard_trailers/medium_trailer_tandem.pcx 210 250 09 20 26 -17 -7
   91 sprites/standard_trailers/medium_trailer_tandem.pcx 242 250 01 16 36 -30 -8
   92 sprites/standard_trailers/medium_trailer_tandem.pcx 290 250 09 20 26 -13 -10
  // Medium end dump - grain, loaded
   93 sprites/standard_trailers/medium_trailer_tandem.pcx 34 290 01 24 12 -3 -10
   94 sprites/standard_trailers/medium_trailer_tandem.pcx 66 290 09 20 26 -11 -9
   95 sprites/standard_trailers/medium_trailer_tandem.pcx 98 290 01 16 36 -14 -6
   96 sprites/standard_trailers/medium_trailer_tandem.pcx 146 290 09 20 26 -9 -7
   97 sprites/standard_trailers/medium_trailer_tandem.pcx 178 290 01 24 12 -9 -16
   98 sprites/standard_trailers/medium_trailer_tandem.pcx 210 290 09 20 26 -17 -7
   99 sprites/standard_trailers/medium_trailer_tandem.pcx 242 290 01 16 36 -30 -8
  100 sprites/standard_trailers/medium_trailer_tandem.pcx 290 290 09 20 26 -13 -10
  // Medium end dump - clay, loading
  101 sprites/standard_trailers/medium_trailer_tandem.pcx 34 410 01 24 12 -3 -10
  102 sprites/standard_trailers/medium_trailer_tandem.pcx 66 410 09 20 26 -11 -9
  103 sprites/standard_trailers/medium_trailer_tandem.pcx 98 410 01 16 36 -14 -6
  104 sprites/standard_trailers/medium_trailer_tandem.pcx 146 410 09 20 26 -9 -7
  105 sprites/standard_trailers/medium_trailer_tandem.pcx 178 410 01 24 12 -9 -16
  106 sprites/standard_trailers/medium_trailer_tandem.pcx 210 410 09 20 26 -17 -7
  107 sprites/standard_trailers/medium_trailer_tandem.pcx 242 410 01 16 36 -30 -8
  108 sprites/standard_trailers/medium_trailer_tandem.pcx 290 410 09 20 26 -13 -10
  // Medium end dump - clay, loaded
  109 sprites/standard_trailers/medium_trailer_tandem.pcx 34 450 01 24 12 -3 -10
  110 sprites/standard_trailers/medium_trailer_tandem.pcx 66 450 09 20 26 -11 -9
  111 sprites/standard_trailers/medium_trailer_tandem.pcx 98 450 01 16 36 -14 -6
  112 sprites/standard_trailers/medium_trailer_tandem.pcx 146 450 09 20 26 -9 -7
  113 sprites/standard_trailers/medium_trailer_tandem.pcx 178 450 01 24 12 -9 -16
  114 sprites/standard_trailers/medium_trailer_tandem.pcx 210 450 09 20 26 -17 -7
  115 sprites/standard_trailers/medium_trailer_tandem.pcx 242 450 01 16 36 -30 -8
  116 sprites/standard_trailers/medium_trailer_tandem.pcx 290 450 09 20 26 -13 -10
  // Medium end dump - copper ore, loading
  117 sprites/standard_trailers/medium_trailer_tandem.pcx 34 330 01 24 12 -3 -10
  118 sprites/standard_trailers/medium_trailer_tandem.pcx 66 330 09 20 26 -11 -9
  119 sprites/standard_trailers/medium_trailer_tandem.pcx 98 330 01 16 36 -14 -6
  120 sprites/standard_trailers/medium_trailer_tandem.pcx 146 330 09 20 26 -9 -7
  121 sprites/standard_trailers/medium_trailer_tandem.pcx 178 330 01 24 12 -9 -16
  122 sprites/standard_trailers/medium_trailer_tandem.pcx 210 330 09 20 26 -17 -7
  123 sprites/standard_trailers/medium_trailer_tandem.pcx 242 330 01 16 36 -30 -8
  124 sprites/standard_trailers/medium_trailer_tandem.pcx 290 330 09 20 26 -13 -10
  // Medium end dump - copper ore, loaded
  125 sprites/standard_trailers/medium_trailer_tandem.pcx 34 370 01 24 12 -3 -10
  126 sprites/standard_trailers/medium_trailer_tandem.pcx 66 370 09 20 26 -11 -9
  127 sprites/standard_trailers/medium_trailer_tandem.pcx 98 370 01 16 36 -14 -6
  128 sprites/standard_trailers/medium_trailer_tandem.pcx 146 370 09 20 26 -9 -7
  129 sprites/standard_trailers/medium_trailer_tandem.pcx 178 370 01 24 12 -9 -16
  130 sprites/standard_trailers/medium_trailer_tandem.pcx 210 370 09 20 26 -17 -7
  131 sprites/standard_trailers/medium_trailer_tandem.pcx 242 370 01 16 36 -30 -8
  132 sprites/standard_trailers/medium_trailer_tandem.pcx 290 370 09 20 26 -13 -10
  // Medium end dump - gravel, loading
  133 sprites/standard_trailers/medium_trailer_tandem.pcx 34 90 01 24 12 -3 -10
  134 sprites/standard_trailers/medium_trailer_tandem.pcx 66 90 09 20 26 -11 -9
  135 sprites/standard_trailers/medium_trailer_tandem.pcx 98 90 01 16 36 -14 -6
  136 sprites/standard_trailers/medium_trailer_tandem.pcx 146 90 09 20 26 -9 -7
  137 sprites/standard_trailers/medium_trailer_tandem.pcx 178 90 01 24 12 -9 -16
  138 sprites/standard_trailers/medium_trailer_tandem.pcx 210 90 09 20 26 -17 -7
  139 sprites/standard_trailers/medium_trailer_tandem.pcx 242 90 01 16 36 -30 -8
  140 sprites/standard_trailers/medium_trailer_tandem.pcx 290 90 09 20 26 -13 -10
  // Medium end dump - gravel, loaded
  141 sprites/standard_trailers/medium_trailer_tandem.pcx 34 130 01 24 12 -3 -10
  142 sprites/standard_trailers/medium_trailer_tandem.pcx 66 130 09 20 26 -11 -9
  143 sprites/standard_trailers/medium_trailer_tandem.pcx 98 130 01 16 36 -14 -6
  144 sprites/standard_trailers/medium_trailer_tandem.pcx 146 130 09 20 26 -9 -7
  145 sprites/standard_trailers/medium_trailer_tandem.pcx 178 130 01 24 12 -9 -16
  146 sprites/standard_trailers/medium_trailer_tandem.pcx 210 130 09 20 26 -17 -7
  147 sprites/standard_trailers/medium_trailer_tandem.pcx 242 130 01 16 36 -30 -8
  148 sprites/standard_trailers/medium_trailer_tandem.pcx 290 130 09 20 26 -13 -10
  149 * 17	 02 01 08  03 03    00 00  01 00  02 00    00 00  01 00  02 00 // iron ore
  150 * 17	 02 01 01  03 03    00 00  03 00  04 00    00 00  03 00  04 00 // coal
  151 * 17	 02 01 06  03 03    00 00  05 00  06 00    00 00  05 00  06 00 // grain
  152 * 17	 02 01 0E  03 03    00 00  07 00  08 00    00 00  07 00  08 00 // brown 
  153 * 17	 02 01 17  03 03    00 00  09 00  0A 00    00 00  09 00  0A 00 // red
  154 * 17	 02 01 11  03 03    00 00  0B 00  0C 00    00 00  0B 00  0C 00 // grey
  // Medium flat trailer / (also stake trailer ??)
  155 * 4	 01 01 0C 08
  // Medium flat trailer - empty
  156 sprites/standard_trailers/medium_trailer_tandem.pcx 34 730 01 24 12 -3 -10
  157 sprites/standard_trailers/medium_trailer_tandem.pcx 66 730 09 20 26 -11 -9
  158 sprites/standard_trailers/medium_trailer_tandem.pcx 98 730 01 16 36 -14 -6
  159 sprites/standard_trailers/medium_trailer_tandem.pcx 146 730 09 20 26 -9 -7
  160 sprites/standard_trailers/medium_trailer_tandem.pcx 178 730 01 24 12 -9 -16
  161 sprites/standard_trailers/medium_trailer_tandem.pcx 210 730 09 20 26 -17 -7
  162 sprites/standard_trailers/medium_trailer_tandem.pcx 242 730 01 16 36 -30 -8
  163 sprites/standard_trailers/medium_trailer_tandem.pcx 290 730 09 20 26 -13 -10
  // Medium flat trailer - steel, loading  
  164 sprites/standard_trailers/medium_trailer_tandem.pcx 34 970 01 24 12 -3 -10
  165 sprites/standard_trailers/medium_trailer_tandem.pcx 66 970 09 20 26 -11 -9
  166 sprites/standard_trailers/medium_trailer_tandem.pcx 98 970 01 16 36 -14 -6
  167 sprites/standard_trailers/medium_trailer_tandem.pcx 146 970 09 20 26 -9 -7
  168 sprites/standard_trailers/medium_trailer_tandem.pcx 178 970 01 24 12 -9 -16
  169 sprites/standard_trailers/medium_trailer_tandem.pcx 210 970 09 20 26 -17 -7
  170 sprites/standard_trailers/medium_trailer_tandem.pcx 242 970 01 16 36 -30 -8
  171 sprites/standard_trailers/medium_trailer_tandem.pcx 290 970 09 20 26 -13 -10
  // Medium flat trailer - steel, loaded  
  172 sprites/standard_trailers/medium_trailer_tandem.pcx 34 970 01 24 12 -3 -10
  173 sprites/standard_trailers/medium_trailer_tandem.pcx 66 970 09 20 26 -11 -9
  174 sprites/standard_trailers/medium_trailer_tandem.pcx 98 970 01 16 36 -14 -6
  175 sprites/standard_trailers/medium_trailer_tandem.pcx 146 970 09 20 26 -9 -7
  176 sprites/standard_trailers/medium_trailer_tandem.pcx 178 970 01 24 12 -9 -16
  177 sprites/standard_trailers/medium_trailer_tandem.pcx 210 970 09 20 26 -17 -7
  178 sprites/standard_trailers/medium_trailer_tandem.pcx 242 970 01 16 36 -30 -8
  179 sprites/standard_trailers/medium_trailer_tandem.pcx 290 970 09 20 26 -13 -10
  // Medium flat trailer - paper, loading  
  180 sprites/standard_trailers/medium_trailer_tandem.pcx 34 1130 01 24 12 -3 -10
  181 sprites/standard_trailers/medium_trailer_tandem.pcx 66 1130 09 20 26 -11 -9
  182 sprites/standard_trailers/medium_trailer_tandem.pcx 98 1130 01 16 36 -14 -6
  183 sprites/standard_trailers/medium_trailer_tandem.pcx 146 1130 09 20 26 -9 -7
  184 sprites/standard_trailers/medium_trailer_tandem.pcx 178 1130 01 24 12 -9 -16
  185 sprites/standard_trailers/medium_trailer_tandem.pcx 210 1130 09 20 26 -17 -7
  186 sprites/standard_trailers/medium_trailer_tandem.pcx 242 1130 01 16 36 -30 -8
  187 sprites/standard_trailers/medium_trailer_tandem.pcx 290 1130 09 20 26 -13 -10
  // Medium flat trailer - paper, loaded  
  188 sprites/standard_trailers/medium_trailer_tandem.pcx 34 1130 01 24 12 -3 -10
  189 sprites/standard_trailers/medium_trailer_tandem.pcx 66 1130 09 20 26 -11 -9
  190 sprites/standard_trailers/medium_trailer_tandem.pcx 98 1130 01 16 36 -14 -6
  191 sprites/standard_trailers/medium_trailer_tandem.pcx 146 1130 09 20 26 -9 -7
  192 sprites/standard_trailers/medium_trailer_tandem.pcx 178 1130 01 24 12 -9 -16
  193 sprites/standard_trailers/medium_trailer_tandem.pcx 210 1130 09 20 26 -17 -7
  194 sprites/standard_trailers/medium_trailer_tandem.pcx 242 1130 01 16 36 -30 -8
  195 sprites/standard_trailers/medium_trailer_tandem.pcx 290 1130 09 20 26 -13 -10
  // Medium stake trailer - empty
  196 sprites/standard_trailers/medium_trailer_tandem.pcx 34 610 01 24 12 -3 -10
  197 sprites/standard_trailers/medium_trailer_tandem.pcx 66 610 09 20 26 -11 -9
  198 sprites/standard_trailers/medium_trailer_tandem.pcx 98 610 01 16 36 -14 -6
  199 sprites/standard_trailers/medium_trailer_tandem.pcx 146 610 09 20 26 -9 -7
  200 sprites/standard_trailers/medium_trailer_tandem.pcx 178 610 01 24 12 -9 -16
  201 sprites/standard_trailers/medium_trailer_tandem.pcx 210 610 09 20 26 -17 -7
  202 sprites/standard_trailers/medium_trailer_tandem.pcx 242 610 01 16 36 -30 -8
  203 sprites/standard_trailers/medium_trailer_tandem.pcx 290 610 09 20 26 -13 -10
  // Medium stake trailer - Wood, loading  
  204 sprites/standard_trailers/medium_trailer_tandem.pcx 34 650 01 24 12 -3 -10
  205 sprites/standard_trailers/medium_trailer_tandem.pcx 66 650 09 20 26 -11 -9
  206 sprites/standard_trailers/medium_trailer_tandem.pcx 98 650 01 16 36 -14 -6
  207 sprites/standard_trailers/medium_trailer_tandem.pcx 146 650 09 20 26 -9 -7
  208 sprites/standard_trailers/medium_trailer_tandem.pcx 178 650 01 24 12 -9 -16
  209 sprites/standard_trailers/medium_trailer_tandem.pcx 210 650 09 20 26 -17 -7
  210 sprites/standard_trailers/medium_trailer_tandem.pcx 242 650 01 16 36 -30 -8
  211 sprites/standard_trailers/medium_trailer_tandem.pcx 290 650 09 20 26 -13 -10
  // Medium stake trailer - Wood, loaded  
  212 sprites/standard_trailers/medium_trailer_tandem.pcx 34 690 01 24 12 -3 -10
  213 sprites/standard_trailers/medium_trailer_tandem.pcx 66 690 09 20 26 -11 -9
  214 sprites/standard_trailers/medium_trailer_tandem.pcx 98 690 01 16 36 -14 -6
  215 sprites/standard_trailers/medium_trailer_tandem.pcx 146 690 09 20 26 -9 -7
  216 sprites/standard_trailers/medium_trailer_tandem.pcx 178 690 01 24 12 -9 -16
  217 sprites/standard_trailers/medium_trailer_tandem.pcx 210 690 09 20 26 -17 -7
  218 sprites/standard_trailers/medium_trailer_tandem.pcx 242 690 01 16 36 -30 -8
  219 sprites/standard_trailers/medium_trailer_tandem.pcx 290 690 09 20 26 -13 -10
 // Medium flat trailer - livestock, loading  
  220 sprites/standard_trailers/medium_trailer_tandem.pcx 34 810 01 24 12 -3 -10
  221 sprites/standard_trailers/medium_trailer_tandem.pcx 66 810 09 20 26 -11 -9
  222 sprites/standard_trailers/medium_trailer_tandem.pcx 98 810 01 16 36 -14 -6
  223 sprites/standard_trailers/medium_trailer_tandem.pcx 146 810 09 20 26 -9 -7
  224 sprites/standard_trailers/medium_trailer_tandem.pcx 178 810 01 24 12 -9 -16
  225 sprites/standard_trailers/medium_trailer_tandem.pcx 210 810 09 20 26 -17 -7
  226 sprites/standard_trailers/medium_trailer_tandem.pcx 242 810 01 16 36 -30 -8
  227 sprites/standard_trailers/medium_trailer_tandem.pcx 290 810 09 20 26 -13 -10
 // Medium flat trailer - livestock, loaded
  228 sprites/standard_trailers/medium_trailer_tandem.pcx 34 810 01 24 12 -3 -10
  229 sprites/standard_trailers/medium_trailer_tandem.pcx 66 810 09 20 26 -11 -9
  230 sprites/standard_trailers/medium_trailer_tandem.pcx 98 810 01 16 36 -14 -6
  231 sprites/standard_trailers/medium_trailer_tandem.pcx 146 810 09 20 26 -9 -7
  232 sprites/standard_trailers/medium_trailer_tandem.pcx 178 810 01 24 12 -9 -16
  233 sprites/standard_trailers/medium_trailer_tandem.pcx 210 810 09 20 26 -17 -7
  234 sprites/standard_trailers/medium_trailer_tandem.pcx 242 810 01 16 36 -30 -8
  235 sprites/standard_trailers/medium_trailer_tandem.pcx 290 810 09 20 26 -13 -10
 // Medium flat trailer - copper, loading  
  236 sprites/standard_trailers/medium_trailer_tandem.pcx 34 10 01 24 12 -3 -10
  237 sprites/standard_trailers/medium_trailer_tandem.pcx 66 10 09 20 26 -11 -9
  238 sprites/standard_trailers/medium_trailer_tandem.pcx 98 10 01 16 36 -14 -6
  239 sprites/standard_trailers/medium_trailer_tandem.pcx 146 10 09 20 26 -9 -7
  240 sprites/standard_trailers/medium_trailer_tandem.pcx 178 10 01 24 12 -9 -16
  241 sprites/standard_trailers/medium_trailer_tandem.pcx 210 10 09 20 26 -17 -7
  242 sprites/standard_trailers/medium_trailer_tandem.pcx 242 10 01 16 36 -30 -8
  243 sprites/standard_trailers/medium_trailer_tandem.pcx 290 10 09 20 26 -13 -10
 // Medium flat trailer - copper, loaded  
  244 sprites/standard_trailers/medium_trailer_tandem.pcx 34 10 01 24 12 -3 -10
  245 sprites/standard_trailers/medium_trailer_tandem.pcx 66 10 09 20 26 -11 -9
  246 sprites/standard_trailers/medium_trailer_tandem.pcx 98 10 01 16 36 -14 -6
  247 sprites/standard_trailers/medium_trailer_tandem.pcx 146 10 09 20 26 -9 -7
  248 sprites/standard_trailers/medium_trailer_tandem.pcx 178 10 01 24 12 -9 -16
  249 sprites/standard_trailers/medium_trailer_tandem.pcx 210 10 09 20 26 -17 -7
  250 sprites/standard_trailers/medium_trailer_tandem.pcx 242 10 01 16 36 -30 -8
  251 sprites/standard_trailers/medium_trailer_tandem.pcx 290 10 09 20 26 -13 -10
  252 * 17	 02 01 09  03 03   00 00  01 00  02 00    00 00  01 00  02 00
  253 * 17	 02 01 0B  03 03   00 00  03 00  04 00    00 00  03 00  04 00
  254 * 17	 02 01 07  03 03   05 00  06 00  07 00    05 00  06 00  07 00
  255 * 17	 02 01 04  03 03   00 00  07 00  08 00    00 00  07 00  08 00
  256 * 17	 02 01 18  03 03   00 00  09 00  0A 00    00 00  09 00  0A 00 
  257 * 17	 02 01 19  03 03   00 00  09 00  0B 00    00 00  09 00  0B 00 // copper ? 
  // Medium tank trailer
  258 * 4	 01 01 01 08
  259 sprites/standard_trailers/medium_trailer_tandem.pcx 34 10 01 24 12 -3 -10
  260 sprites/standard_trailers/medium_trailer_tandem.pcx 66 10 09 20 26 -11 -9
  261 sprites/standard_trailers/medium_trailer_tandem.pcx 98 10 01 16 36 -14 -6
  262 sprites/standard_trailers/medium_trailer_tandem.pcx 146 10 09 20 26 -9 -7
  263 sprites/standard_trailers/medium_trailer_tandem.pcx 178 10 01 24 12 -9 -16
  264 sprites/standard_trailers/medium_trailer_tandem.pcx 210 10 09 20 26 -17 -7
  265 sprites/standard_trailers/medium_trailer_tandem.pcx 242 10 01 16 36 -30 -8
  266 sprites/standard_trailers/medium_trailer_tandem.pcx 290 10 09 20 26 -13 -10
  267 * 9	 02 01 03   01 01    00 00    00 00
  268 * 4	 01 01 01 08
  269 sprites/heqs2.pcx 770 424 01 18 8 -3 -10
  270 sprites/heqs2.pcx 2 456 09 16 20 -14 -7
  271 sprites/heqs2.pcx 34 456 01 12 28 -14 -6
  272 sprites/heqs2.pcx 82 456 09 16 20 -6 -8
  273 sprites/heqs2.pcx 114 456 01 18 8 -3 -10
  274 sprites/heqs2.pcx 130 456 09 16 20 -14 -8
  275 sprites/heqs2.pcx 162 456 01 12 28 -14 -6
  276 sprites/heqs2.pcx 210 456 09 16 20 -6 -7
  277 * 9	 02 01 0C   01 01    00 00    00 00
  // Var action 2 ID schema: B = bulk, C = Covered, F = Flat
  278 * 18	 02 01 AC  // text suffixes
                 81 F2 00 FF //
                 02 // range
                  00 80 00 00 // 
                  01 80 01 01 //  
                 FF 80
  // AB, AA contain some code to allow refit to multiple cargos, this is unused until additional sprites are drawn.
//!!Warning (100): Default ID appears earlier in sprite.
//!!Warning (100): Default ID appears earlier in sprite.
  279 * 18	 02 01 AB  // choose sprites according to refit
                 81 F2 00 FF //
                 02 // range
                  05 00 00 00 // 
                  05 00 01 01 // 
                 05 00 // default 
  280 * 14	 02 01 AA  // handle callbacks
                 81 0C 00 FF //
                 01 // range
                  04 80 11 11 // vehicle length CB
                  //AC 00 19 19 // text suffix CB 
                 05 00 // graphics
  281 * 49	 03 01 01 00 // Action 3
    0E // Number of different cargo types to support (!! Hex) 
    01 01 00 // coal
    03 03 00 // oil
    04 04 00 // livestock
    06 06 00 // grain 
    07 07 00 // wood
    08 08 00 // iron ore
	  09 09 00 // steel
	  0B 0B 00 // paper
	  0E 0E 00 // copper ore
	  0F 03 00 // water
	  10 03 00 // rubber
	  1B 06 00 // wheat
	  1D 06 00 // maize
	  1E 07 00 // tropical wood
	  AA 00 // default (box trailer)

   // ------------ end of Medium Trailers ------------------ //

  // -------------- Bulldozer Trailers --------------- //

  // Bulldozer trailer standard
       // Rough order of business here
       // Bulldozer trailers vary capacity depending on date vehicle is built
       // Can't get CB 36 to do that on build, only on refit (oh so close)
       // So instead define multiple vehicles using the same real sprites
       // Only difference is capacity
       // Lead vehicle chooses different trailers depending on date
       // This is inefficient on source code, also on ID use, but we have 255 IDs to play with so should be ok.
     // NOTE: Don't use IDs > 128 for trailers in articulated consists (lead vehicle ID can be > 128)
  282 * 67	 00 01 19 01 6E
      00 00 00  // intro date
      02 20     // reliability
      03 19     // vehicle life
      04 23     // class life
      06 00     // climate
      07 05     // load amount
      08 E0     // speed in mph * 3.2
      09 08     // running cost factor
      0A 48 4C 00 00 13 00 14 20    // running cost base
      0E FF     // sprite ID
      0F \b10     // capacity
      10 06     // cargo type
      11 00     // cost factor
      12 00     // sound effect
      15 38     // speed in mph * 0.8
      16 00 00 00 00    // Bit mask of cargo types available for refitting
      17 30     // Callback flags bit mask
      1A 00     // Refit cost, using 25% of the purchase price cost base
      1B 00     // Retire vehicle early, this many years before the end of phase 2
      1C 02     // Miscellaneous vehicle flags 
      1D FF 03      // Refittable cargo classes
      1E 01 00      // Non-refittable cargo classes
      1F 60 B3 0A 00    // Long format introduction date     
  283 * 67	 00 01 19 01 6F
      00 00 00  // intro date
      02 20     // reliability
      03 19     // vehicle life
      04 23     // class life
      06 00     // climate
      07 05     // load amount
      08 E0     // speed in mph * 3.2
      09 08     // running cost factor
      0A 48 4C 00 00 13 00 14 20    // running cost base
      0E FF     // sprite ID
      0F \b12     // capacity
      10 06     // cargo type
      11 00     // cost factor
      12 00     // sound effect
      15 38     // speed in mph * 0.8
      16 00 00 00 00    // Bit mask of cargo types available for refitting
      17 30     // Callback flags bit mask
      1A 00     // Refit cost, using 25% of the purchase price cost base
      1B 00     // Retire vehicle early, this many years before the end of phase 2
      1C 02     // Miscellaneous vehicle flags 
      1D FF 03      // Refittable cargo classes
      1E 01 00      // Non-refittable cargo classes
      1F 60 B3 0A 00    // Long format introduction date     
  284 * 67	 00 01 19 01 70
      00 00 00  // intro date
      02 20     // reliability
      03 19     // vehicle life
      04 23     // class life
      06 00     // climate
      07 05     // load amount
      08 E0     // speed in mph * 3.2
      09 08     // running cost factor
      0A 48 4C 00 00 13 00 14 20    // running cost base
      0E FF     // sprite ID
      0F \b14     // capacity
      10 06     // cargo type
      11 00     // cost factor
      12 00     // sound effect
      15 38     // speed in mph * 0.8
      16 00 00 00 00    // Bit mask of cargo types available for refitting
      17 30     // Callback flags bit mask
      1A 00     // Refit cost, using 25% of the purchase price cost base
      1B 00     // Retire vehicle early, this many years before the end of phase 2
      1C 02     // Miscellaneous vehicle flags 
      1D FF 03      // Refittable cargo classes
      1E 01 00      // Non-refittable cargo classes
      1F 60 B3 0A 00    // Long format introduction date     
  285 * 67	 00 01 19 01 71
      00 00 00  // intro date
      02 20     // reliability
      03 19     // vehicle life
      04 23     // class life
      06 00     // climate
      07 05     // load amount
      08 E0     // speed in mph * 3.2
      09 08     // running cost factor
      0A 48 4C 00 00 13 00 14 20    // running cost base
      0E FF     // sprite ID
      0F \b16     // capacity
      10 06     // cargo type
      11 00     // cost factor
      12 00     // sound effect
      15 38     // speed in mph * 0.8
      16 00 00 00 00    // Bit mask of cargo types available for refitting
      17 30     // Callback flags bit mask
      1A 00     // Refit cost, using 25% of the purchase price cost base
      1B 00     // Retire vehicle early, this many years before the end of phase 2
      1C 02     // Miscellaneous vehicle flags 
      1D FF 03      // Refittable cargo classes
      1E 01 00      // Non-refittable cargo classes
      1F 60 B3 0A 00    // Long format introduction date     
  286 * 67	 00 01 19 01 72
      00 00 00  // intro date
      02 20     // reliability
      03 19     // vehicle life
      04 23     // class life
      06 00     // climate
      07 05     // load amount
      08 E0     // speed in mph * 3.2
      09 08     // running cost factor
      0A 48 4C 00 00 13 00 14 20    // running cost base
      0E FF     // sprite ID
      0F \b19     // capacity
      10 06     // cargo type
      11 00     // cost factor
      12 00     // sound effect
      15 38     // speed in mph * 0.8
      16 00 00 00 00    // Bit mask of cargo types available for refitting
      17 30     // Callback flags bit mask
      1A 00     // Refit cost, using 25% of the purchase price cost base
      1B 00     // Retire vehicle early, this many years before the end of phase 2
      1C 02     // Miscellaneous vehicle flags 
      1D FF 03      // Refittable cargo classes
      1E 01 00      // Non-refittable cargo classes
      1F 60 B3 0A 00    // Long format introduction date     
  287 * 67	 00 01 19 01 73
      00 00 00  // intro date
      02 20     // reliability
      03 19     // vehicle life
      04 23     // class life
      06 00     // climate
      07 05     // load amount
      08 E0     // speed in mph * 3.2
      09 08     // running cost factor
      0A 48 4C 00 00 13 00 14 20    // running cost base
      0E FF     // sprite ID
      0F \b22     // capacity
      10 06     // cargo type
      11 00     // cost factor
      12 00     // sound effect
      15 38     // speed in mph * 0.8
      16 00 00 00 00    // Bit mask of cargo types available for refitting
      17 30     // Callback flags bit mask
      1A 00     // Refit cost, using 25% of the purchase price cost base
      1B 00     // Retire vehicle early, this many years before the end of phase 2
      1C 02     // Miscellaneous vehicle flags 
      1D FF 03      // Refittable cargo classes
      1E 01 00      // Non-refittable cargo classes
      1F 60 B3 0A 00    // Long format introduction date     
  288 * 42	 04 01 7F 01 70 "[Generic Standard bulldozer Trailer]" 00
  // define additional text suffixes
  289 * 33	 04 00 81 02 00 D0
            		" (Wheeled Trailer)" 00	// D000 = "1st class"
               	" (Sled)" 00	// D001 = "2nd class"
  // Action 2 ID schema: 0 / 1 = wheeled trailer, 2 / 3 = sled
   // Standard bulldozer Goods Trailer
  290 * 4	 01 01 01 08
  291 sprites/standard_trailers/medium_trailer_4_wheel.pcx 34 570 01 24 12 -3 -10
  292 sprites/standard_trailers/medium_trailer_4_wheel.pcx 66 570 01 20 26 -11 -9
  293 sprites/standard_trailers/medium_trailer_4_wheel.pcx 98 570 01 16 36 -15 -7
  294 sprites/standard_trailers/medium_trailer_4_wheel.pcx 146 570 01 20 26 -9 -7
  295 sprites/standard_trailers/medium_trailer_4_wheel.pcx 178 570 01 24 12 -9 -16
  296 sprites/standard_trailers/medium_trailer_4_wheel.pcx 210 570 01 20 26 -17 -7
  297 sprites/standard_trailers/medium_trailer_4_wheel.pcx 242 570 01 16 36 -19 -8
  298 sprites/standard_trailers/medium_trailer_4_wheel.pcx 290 570 01 20 26 -13 -10
  299 * 9	 02 01 05   01 01   00 00    00 00
   // Standard bulldozer Goods Sled
  300 * 4	 01 01 01 08
  301 sprites/standard_trailers/medium_sled.pcx 34 570 01 24 12 -3 -10
  302 sprites/standard_trailers/medium_sled.pcx 66 570 01 20 26 -11 -9
  303 sprites/standard_trailers/medium_sled.pcx 98 570 01 16 36 -15 -7
  304 sprites/standard_trailers/medium_sled.pcx 146 570 01 20 26 -9 -7
  305 sprites/standard_trailers/medium_sled.pcx 178 570 01 24 12 -9 -16
  306 sprites/standard_trailers/medium_sled.pcx 210 570 01 20 26 -17 -7
  307 sprites/standard_trailers/medium_sled.pcx 242 570 01 16 36 -19 -8
  308 sprites/standard_trailers/medium_sled.pcx 290 570 01 20 26 -13 -10
  309 * 9	 02 01 25   01 01   00 00    00 00
   // Standard bulldozer end dump trailer - empty
  310 * 4	 01 01 0D 08
  311 sprites/standard_trailers/medium_trailer_4_wheel.pcx 34 50 01 24 12 -3 -10
  312 sprites/standard_trailers/medium_trailer_4_wheel.pcx 66 50 09 20 26 -11 -9
  313 sprites/standard_trailers/medium_trailer_4_wheel.pcx 98 50 01 16 36 -15 -7
  314 sprites/standard_trailers/medium_trailer_4_wheel.pcx 146 50 09 20 26 -9 -7
  315 sprites/standard_trailers/medium_trailer_4_wheel.pcx 178 50 01 24 12 -9 -16
  316 sprites/standard_trailers/medium_trailer_4_wheel.pcx 210 50 09 20 26 -17 -7
  317 sprites/standard_trailers/medium_trailer_4_wheel.pcx 242 50 01 16 36 -19 -8
  318 sprites/standard_trailers/medium_trailer_4_wheel.pcx 290 50 09 20 26 -13 -10
   // Standard bulldozer end dump - iron ore, loading
  319 sprites/standard_trailers/medium_trailer_4_wheel.pcx 34 490 01 24 12 -3 -10
  320 sprites/standard_trailers/medium_trailer_4_wheel.pcx 66 490 09 20 20 -11 -9
  321 sprites/standard_trailers/medium_trailer_4_wheel.pcx 98 490 01 16 36 -15 -7
  322 sprites/standard_trailers/medium_trailer_4_wheel.pcx 146 490 09 20 26 -9 -7
  323 sprites/standard_trailers/medium_trailer_4_wheel.pcx 178 490 01 24 12 -9 -16
  324 sprites/standard_trailers/medium_trailer_4_wheel.pcx 210 490 09 20 26 -17 -7
  325 sprites/standard_trailers/medium_trailer_4_wheel.pcx 242 490 01 16 36 -19 -8
  326 sprites/standard_trailers/medium_trailer_4_wheel.pcx 290 490 09 20 26 -13 -10
   // Standard bulldozer end dump - iron ore, loaded
  327 sprites/standard_trailers/medium_trailer_4_wheel.pcx 34 530 01 24 12 -3 -10
  328 sprites/standard_trailers/medium_trailer_4_wheel.pcx 66 530 09 20 20 -11 -9
  329 sprites/standard_trailers/medium_trailer_4_wheel.pcx 98 530 01 16 36 -15 -7
  330 sprites/standard_trailers/medium_trailer_4_wheel.pcx 146 530 09 20 26 -9 -7
  331 sprites/standard_trailers/medium_trailer_4_wheel.pcx 178 530 01 24 12 -9 -16
  332 sprites/standard_trailers/medium_trailer_4_wheel.pcx 210 530 09 20 26 -17 -7
  333 sprites/standard_trailers/medium_trailer_4_wheel.pcx 242 530 01 16 36 -19 -8
  334 sprites/standard_trailers/medium_trailer_4_wheel.pcx 290 530 09 20 26 -13 -10
   // Standard bulldozer end dump - coal, loading
  335 sprites/standard_trailers/medium_trailer_4_wheel.pcx 34 170 01 24 12 -3 -10
  336 sprites/standard_trailers/medium_trailer_4_wheel.pcx 66 170 09 20 26 -11 -9
  337 sprites/standard_trailers/medium_trailer_4_wheel.pcx 98 170 01 16 36 -15 -7
  338 sprites/standard_trailers/medium_trailer_4_wheel.pcx 146 170 09 20 26 -9 -7
  339 sprites/standard_trailers/medium_trailer_4_wheel.pcx 178 170 01 24 12 -9 -16
  340 sprites/standard_trailers/medium_trailer_4_wheel.pcx 210 170 09 20 26 -17 -7
  341 sprites/standard_trailers/medium_trailer_4_wheel.pcx 242 170 01 16 36 -19 -8
  342 sprites/standard_trailers/medium_trailer_4_wheel.pcx 290 170 09 20 26 -13 -10
   // Standard bulldozer end dump - coal, loaded
  343 sprites/standard_trailers/medium_trailer_4_wheel.pcx 34 210 01 24 12 -3 -10
  344 sprites/standard_trailers/medium_trailer_4_wheel.pcx 66 210 09 20 26 -11 -9
  345 sprites/standard_trailers/medium_trailer_4_wheel.pcx 98 210 01 16 36 -15 -7
  346 sprites/standard_trailers/medium_trailer_4_wheel.pcx 146 210 09 20 26 -9 -7
  347 sprites/standard_trailers/medium_trailer_4_wheel.pcx 178 210 01 24 12 -9 -16
  348 sprites/standard_trailers/medium_trailer_4_wheel.pcx 210 210 09 20 26 -17 -7
  349 sprites/standard_trailers/medium_trailer_4_wheel.pcx 242 210 01 16 36 -19 -8
  350 sprites/standard_trailers/medium_trailer_4_wheel.pcx 290 210 09 20 26 -13 -10
   // Standard bulldozer end dump - grain, loading
  351 sprites/standard_trailers/medium_trailer_4_wheel.pcx 34 250 01 24 12 -3 -10
  352 sprites/standard_trailers/medium_trailer_4_wheel.pcx 66 250 09 20 26 -11 -9
  353 sprites/standard_trailers/medium_trailer_4_wheel.pcx 98 250 01 16 36 -15 -7
  354 sprites/standard_trailers/medium_trailer_4_wheel.pcx 146 250 09 20 26 -9 -7
  355 sprites/standard_trailers/medium_trailer_4_wheel.pcx 178 250 01 24 12 -9 -16
  356 sprites/standard_trailers/medium_trailer_4_wheel.pcx 210 250 09 20 26 -17 -7
  357 sprites/standard_trailers/medium_trailer_4_wheel.pcx 242 250 01 16 36 -19 -8
  358 sprites/standard_trailers/medium_trailer_4_wheel.pcx 290 250 09 20 26 -13 -10
  // Standard bulldozer end dump - grain, loaded
  359 sprites/standard_trailers/medium_trailer_4_wheel.pcx 34 290 01 24 12 -3 -10
  360 sprites/standard_trailers/medium_trailer_4_wheel.pcx 66 290 09 20 26 -11 -9
  361 sprites/standard_trailers/medium_trailer_4_wheel.pcx 98 290 01 16 36 -15 -7
  362 sprites/standard_trailers/medium_trailer_4_wheel.pcx 146 290 09 20 26 -9 -7
  363 sprites/standard_trailers/medium_trailer_4_wheel.pcx 178 290 01 24 12 -9 -16
  364 sprites/standard_trailers/medium_trailer_4_wheel.pcx 210 290 09 20 26 -17 -7
  365 sprites/standard_trailers/medium_trailer_4_wheel.pcx 242 290 01 16 36 -19 -8
  366 sprites/standard_trailers/medium_trailer_4_wheel.pcx 290 290 09 20 26 -13 -10
  // Standard bulldozer end dump - brown, loading
  367 sprites/standard_trailers/medium_trailer_4_wheel.pcx 34 410 01 24 12 -3 -10
  368 sprites/standard_trailers/medium_trailer_4_wheel.pcx 66 410 09 20 26 -11 -9
  369 sprites/standard_trailers/medium_trailer_4_wheel.pcx 98 410 01 16 36 -15 -7
  370 sprites/standard_trailers/medium_trailer_4_wheel.pcx 146 410 09 20 26 -9 -7
  371 sprites/standard_trailers/medium_trailer_4_wheel.pcx 178 410 01 24 12 -9 -16
  372 sprites/standard_trailers/medium_trailer_4_wheel.pcx 210 410 09 20 26 -17 -7
  373 sprites/standard_trailers/medium_trailer_4_wheel.pcx 242 410 01 16 36 -19 -8
  374 sprites/standard_trailers/medium_trailer_4_wheel.pcx 290 410 09 20 26 -13 -10
  // Standard bulldozer end dump - brown, loaded
  375 sprites/standard_trailers/medium_trailer_4_wheel.pcx 34 450 01 24 12 -3 -10
  376 sprites/standard_trailers/medium_trailer_4_wheel.pcx 66 450 09 20 26 -11 -9
  377 sprites/standard_trailers/medium_trailer_4_wheel.pcx 98 450 01 16 36 -15 -7
  378 sprites/standard_trailers/medium_trailer_4_wheel.pcx 146 450 09 20 26 -9 -7
  379 sprites/standard_trailers/medium_trailer_4_wheel.pcx 178 450 01 24 12 -9 -16
  380 sprites/standard_trailers/medium_trailer_4_wheel.pcx 210 450 09 20 26 -17 -7
  381 sprites/standard_trailers/medium_trailer_4_wheel.pcx 242 450 01 16 36 -19 -8
  382 sprites/standard_trailers/medium_trailer_4_wheel.pcx 290 450 09 20 26 -13 -10
  // Standard bulldozer end dump - red, loading
  383 sprites/standard_trailers/medium_trailer_4_wheel.pcx 34 370 01 24 12 -3 -10
  384 sprites/standard_trailers/medium_trailer_4_wheel.pcx 66 370 09 20 26 -11 -9
  385 sprites/standard_trailers/medium_trailer_4_wheel.pcx 98 370 01 16 36 -15 -7
  386 sprites/standard_trailers/medium_trailer_4_wheel.pcx 146 370 09 20 26 -9 -7
  387 sprites/standard_trailers/medium_trailer_4_wheel.pcx 178 370 01 24 12 -9 -16
  388 sprites/standard_trailers/medium_trailer_4_wheel.pcx 210 370 09 20 26 -17 -7
  389 sprites/standard_trailers/medium_trailer_4_wheel.pcx 242 370 01 16 36 -19 -8
  390 sprites/standard_trailers/medium_trailer_4_wheel.pcx 290 370 09 20 26 -13 -10
  // Standard bulldozer end dump - red, loaded
  391 sprites/standard_trailers/medium_trailer_4_wheel.pcx 34 370 01 24 12 -3 -10
  392 sprites/standard_trailers/medium_trailer_4_wheel.pcx 66 370 09 20 26 -11 -9
  393 sprites/standard_trailers/medium_trailer_4_wheel.pcx 98 370 01 16 36 -15 -7
  394 sprites/standard_trailers/medium_trailer_4_wheel.pcx 146 370 09 20 26 -9 -7
  395 sprites/standard_trailers/medium_trailer_4_wheel.pcx 178 370 01 24 12 -9 -16
  396 sprites/standard_trailers/medium_trailer_4_wheel.pcx 210 370 09 20 26 -17 -7
  397 sprites/standard_trailers/medium_trailer_4_wheel.pcx 242 370 01 16 36 -19 -8
  398 sprites/standard_trailers/medium_trailer_4_wheel.pcx 290 370 09 20 26 -13 -10
  // Standard bulldozer end dump - grey, loading
  399 sprites/standard_trailers/medium_trailer_4_wheel.pcx 34 90 01 24 12 -3 -10
  400 sprites/standard_trailers/medium_trailer_4_wheel.pcx 66 90 09 20 26 -11 -9
  401 sprites/standard_trailers/medium_trailer_4_wheel.pcx 98 90 01 16 36 -15 -7
  402 sprites/standard_trailers/medium_trailer_4_wheel.pcx 146 90 09 20 26 -9 -7
  403 sprites/standard_trailers/medium_trailer_4_wheel.pcx 178 90 01 24 12 -9 -16
  404 sprites/standard_trailers/medium_trailer_4_wheel.pcx 210 90 09 20 26 -17 -7
  405 sprites/standard_trailers/medium_trailer_4_wheel.pcx 242 90 01 16 36 -19 -8
  406 sprites/standard_trailers/medium_trailer_4_wheel.pcx 290 90 09 20 26 -13 -10
  // Standard bulldozer end dump - grey, loaded
  407 sprites/standard_trailers/medium_trailer_4_wheel.pcx 34 130 01 24 12 -3 -10
  408 sprites/standard_trailers/medium_trailer_4_wheel.pcx 66 130 09 20 26 -11 -9
  409 sprites/standard_trailers/medium_trailer_4_wheel.pcx 98 130 01 16 36 -15 -7
  410 sprites/standard_trailers/medium_trailer_4_wheel.pcx 146 130 09 20 26 -9 -7
  411 sprites/standard_trailers/medium_trailer_4_wheel.pcx 178 130 01 24 12 -9 -16
  412 sprites/standard_trailers/medium_trailer_4_wheel.pcx 210 130 09 20 26 -17 -7
  413 sprites/standard_trailers/medium_trailer_4_wheel.pcx 242 130 01 16 36 -19 -8
  414 sprites/standard_trailers/medium_trailer_4_wheel.pcx 290 130 09 20 26 -13 -10
  415 * 17	 02 01 08  03 03    00 00  01 00  02 00    00 00  01 00  02 00 // iron ore ?
  416 * 17	 02 01 01  03 03    00 00  03 00  04 00    00 00  03 00  04 00 // coal ?
  417 * 17	 02 01 06  03 03    00 00  05 00  06 00    00 00  05 00  06 00 // grain ?
  418 * 17	 02 01 0E  03 03    00 00  07 00  08 00    00 00  07 00  08 00 // brown ?
//!!Warning (94): Redefining ID 0C not used since previous definition at sprite 277.
  419 * 17	 02 01 0C  03 03    00 00  09 00  0A 00    00 00  09 00  0A 00 // red ?
  420 * 17	 02 01 0D  03 03    00 00  0B 00  0C 00    00 00  0B 00  0C 00 // grey ?
  // Standard bulldozer side dump sled - empty
  421 * 4	 01 01 0D 08
  422 sprites/standard_trailers/medium_sled.pcx 34 50 01 24 12 -3 -10
  423 sprites/standard_trailers/medium_sled.pcx 66 50 09 20 26 -11 -9
  424 sprites/standard_trailers/medium_sled.pcx 98 50 01 16 36 -15 -7
  425 sprites/standard_trailers/medium_sled.pcx 146 50 09 20 26 -9 -7
  426 sprites/standard_trailers/medium_sled.pcx 178 50 01 24 12 -9 -16
  427 sprites/standard_trailers/medium_sled.pcx 210 50 09 20 26 -17 -7
  428 sprites/standard_trailers/medium_sled.pcx 242 50 01 16 36 -19 -8
  429 sprites/standard_trailers/medium_sled.pcx 290 50 09 20 26 -13 -10
   // Standard bulldozer side dump sled - iron ore, loading  !! this isn't iron ore??
  430 sprites/standard_trailers/medium_sled.pcx 34 490 01 24 12 -3 -10
  431 sprites/standard_trailers/medium_sled.pcx 66 490 09 20 20 -11 -9
  432 sprites/standard_trailers/medium_sled.pcx 98 490 01 16 36 -15 -7
  433 sprites/standard_trailers/medium_sled.pcx 146 490 09 20 26 -9 -7
  434 sprites/standard_trailers/medium_sled.pcx 178 490 01 24 12 -9 -16
  435 sprites/standard_trailers/medium_sled.pcx 210 490 09 20 26 -17 -7
  436 sprites/standard_trailers/medium_sled.pcx 242 490 01 16 36 -19 -8
  437 sprites/standard_trailers/medium_sled.pcx 290 490 09 20 26 -13 -10
   // Standard bulldozer side dump sled - iron ore, loaded  !! this isn't iron ore??
  438 sprites/standard_trailers/medium_sled.pcx 34 530 01 24 12 -3 -10
  439 sprites/standard_trailers/medium_sled.pcx 66 530 09 20 20 -11 -9
  440 sprites/standard_trailers/medium_sled.pcx 98 530 01 16 36 -15 -7
  441 sprites/standard_trailers/medium_sled.pcx 146 530 09 20 26 -9 -7
  442 sprites/standard_trailers/medium_sled.pcx 178 530 01 24 12 -9 -16
  443 sprites/standard_trailers/medium_sled.pcx 210 530 09 20 26 -17 -7
  444 sprites/standard_trailers/medium_sled.pcx 242 530 01 16 36 -19 -8
  445 sprites/standard_trailers/medium_sled.pcx 290 530 09 20 26 -13 -10
   // Standard bulldozer side dump sled - coal, loading
  446 sprites/standard_trailers/medium_sled.pcx 34 170 01 24 12 -3 -10
  447 sprites/standard_trailers/medium_sled.pcx 66 170 09 20 26 -11 -9
  448 sprites/standard_trailers/medium_sled.pcx 98 170 01 16 36 -15 -7
  449 sprites/standard_trailers/medium_sled.pcx 146 170 09 20 26 -9 -7
  450 sprites/standard_trailers/medium_sled.pcx 178 170 01 24 12 -9 -16
  451 sprites/standard_trailers/medium_sled.pcx 210 170 09 20 26 -17 -7
  452 sprites/standard_trailers/medium_sled.pcx 242 170 01 16 36 -19 -8
  453 sprites/standard_trailers/medium_sled.pcx 290 170 09 20 26 -13 -10
   // Standard bulldozer side dump sled - coal, loaded
  454 sprites/standard_trailers/medium_sled.pcx 34 210 01 24 12 -3 -10
  455 sprites/standard_trailers/medium_sled.pcx 66 210 09 20 26 -11 -9
  456 sprites/standard_trailers/medium_sled.pcx 98 210 01 16 36 -15 -7
  457 sprites/standard_trailers/medium_sled.pcx 146 210 09 20 26 -9 -7
  458 sprites/standard_trailers/medium_sled.pcx 178 210 01 24 12 -9 -16
  459 sprites/standard_trailers/medium_sled.pcx 210 210 09 20 26 -17 -7
  460 sprites/standard_trailers/medium_sled.pcx 242 210 01 16 36 -19 -8
  461 sprites/standard_trailers/medium_sled.pcx 290 210 09 20 26 -13 -10
   // Standard bulldozer side dump sled - grain, loading
  462 sprites/standard_trailers/medium_sled.pcx 34 250 01 24 12 -3 -10
  463 sprites/standard_trailers/medium_sled.pcx 66 250 09 20 26 -11 -9
  464 sprites/standard_trailers/medium_sled.pcx 98 250 01 16 36 -15 -7
  465 sprites/standard_trailers/medium_sled.pcx 146 250 09 20 26 -9 -7
  466 sprites/standard_trailers/medium_sled.pcx 178 250 01 24 12 -9 -16
  467 sprites/standard_trailers/medium_sled.pcx 210 250 09 20 26 -17 -7
  468 sprites/standard_trailers/medium_sled.pcx 242 250 01 16 36 -19 -8
  469 sprites/standard_trailers/medium_sled.pcx 290 250 09 20 26 -13 -10
  // Standard bulldozer side dump sled - grain, loaded
  470 sprites/standard_trailers/medium_sled.pcx 34 290 01 24 12 -3 -10
  471 sprites/standard_trailers/medium_sled.pcx 66 290 09 20 26 -11 -9
  472 sprites/standard_trailers/medium_sled.pcx 98 290 01 16 36 -15 -7
  473 sprites/standard_trailers/medium_sled.pcx 146 290 09 20 26 -9 -7
  474 sprites/standard_trailers/medium_sled.pcx 178 290 01 24 12 -9 -16
  475 sprites/standard_trailers/medium_sled.pcx 210 290 09 20 26 -17 -7
  476 sprites/standard_trailers/medium_sled.pcx 242 290 01 16 36 -19 -8
  477 sprites/standard_trailers/medium_sled.pcx 290 290 09 20 26 -13 -10
  // Standard bulldozer side dump sled - brown, loading
  478 sprites/standard_trailers/medium_sled.pcx 34 410 01 24 12 -3 -10
  479 sprites/standard_trailers/medium_sled.pcx 66 410 09 20 26 -11 -9
  480 sprites/standard_trailers/medium_sled.pcx 98 410 01 16 36 -15 -7
  481 sprites/standard_trailers/medium_sled.pcx 146 410 09 20 26 -9 -7
  482 sprites/standard_trailers/medium_sled.pcx 178 410 01 24 12 -9 -16
  483 sprites/standard_trailers/medium_sled.pcx 210 410 09 20 26 -17 -7
  484 sprites/standard_trailers/medium_sled.pcx 242 410 01 16 36 -19 -8
  485 sprites/standard_trailers/medium_sled.pcx 290 410 09 20 26 -13 -10
  // Standard bulldozer side dump sled - brown, loaded
  486 sprites/standard_trailers/medium_sled.pcx 34 450 01 24 12 -3 -10
  487 sprites/standard_trailers/medium_sled.pcx 66 450 09 20 26 -11 -9
  488 sprites/standard_trailers/medium_sled.pcx 98 450 01 16 36 -15 -7
  489 sprites/standard_trailers/medium_sled.pcx 146 450 09 20 26 -9 -7
  490 sprites/standard_trailers/medium_sled.pcx 178 450 01 24 12 -9 -16
  491 sprites/standard_trailers/medium_sled.pcx 210 450 09 20 26 -17 -7
  492 sprites/standard_trailers/medium_sled.pcx 242 450 01 16 36 -19 -8
  493 sprites/standard_trailers/medium_sled.pcx 290 450 09 20 26 -13 -10
  // Standard bulldozer side dump sled - red, loading
  494 sprites/standard_trailers/medium_sled.pcx 34 330 01 24 12 -3 -10
  495 sprites/standard_trailers/medium_sled.pcx 66 330 09 20 26 -11 -9
  496 sprites/standard_trailers/medium_sled.pcx 98 330 01 16 36 -15 -7
  497 sprites/standard_trailers/medium_sled.pcx 146 330 09 20 26 -9 -7
  498 sprites/standard_trailers/medium_sled.pcx 178 330 01 24 12 -9 -16
  499 sprites/standard_trailers/medium_sled.pcx 210 330 09 20 26 -17 -7
  500 sprites/standard_trailers/medium_sled.pcx 242 330 01 16 36 -19 -8
  501 sprites/standard_trailers/medium_sled.pcx 290 330 09 20 26 -13 -10
  // Standard bulldozer side dump sled - red, loaded
  502 sprites/standard_trailers/medium_sled.pcx 34 370 01 24 12 -3 -10
  503 sprites/standard_trailers/medium_sled.pcx 66 370 09 20 26 -11 -9
  504 sprites/standard_trailers/medium_sled.pcx 98 370 01 16 36 -15 -7
  505 sprites/standard_trailers/medium_sled.pcx 146 370 09 20 26 -9 -7
  506 sprites/standard_trailers/medium_sled.pcx 178 370 01 24 12 -9 -16
  507 sprites/standard_trailers/medium_sled.pcx 210 370 09 20 26 -17 -7
  508 sprites/standard_trailers/medium_sled.pcx 242 370 01 16 36 -19 -8
  509 sprites/standard_trailers/medium_sled.pcx 290 370 09 20 26 -13 -10
  // Standard bulldozer side dump sled - grey, loading
  510 sprites/standard_trailers/medium_sled.pcx 34 90 01 24 12 -3 -10
  511 sprites/standard_trailers/medium_sled.pcx 66 90 09 20 26 -11 -9
  512 sprites/standard_trailers/medium_sled.pcx 98 90 01 16 36 -15 -7
  513 sprites/standard_trailers/medium_sled.pcx 146 90 09 20 26 -9 -7
  514 sprites/standard_trailers/medium_sled.pcx 178 90 01 24 12 -9 -16
  515 sprites/standard_trailers/medium_sled.pcx 210 90 09 20 26 -17 -7
  516 sprites/standard_trailers/medium_sled.pcx 242 90 01 16 36 -19 -8
  517 sprites/standard_trailers/medium_sled.pcx 290 90 09 20 26 -13 -10
  // Standard bulldozer side dump sled - grey, loaded
  518 sprites/standard_trailers/medium_sled.pcx 34 130 01 24 12 -3 -10
  519 sprites/standard_trailers/medium_sled.pcx 66 130 09 20 26 -11 -9
  520 sprites/standard_trailers/medium_sled.pcx 98 130 01 16 36 -15 -7
  521 sprites/standard_trailers/medium_sled.pcx 146 130 09 20 26 -9 -7
  522 sprites/standard_trailers/medium_sled.pcx 178 130 01 24 12 -9 -16
  523 sprites/standard_trailers/medium_sled.pcx 210 130 09 20 26 -17 -7
  524 sprites/standard_trailers/medium_sled.pcx 242 130 01 16 36 -19 -8
  525 sprites/standard_trailers/medium_sled.pcx 290 130 09 20 26 -13 -10
  526 * 17	 02 01 28  03 03    00 00  01 00  02 00    00 00  01 00  02 00 // iron ore ?
  527 * 17	 02 01 21  03 03    00 00  03 00  04 00    00 00  03 00  04 00 // coal ?
  528 * 17	 02 01 26  03 03    00 00  05 00  06 00    00 00  05 00  06 00 // grain ?
  529 * 17	 02 01 2E  03 03    00 00  07 00  08 00    00 00  07 00  08 00 // brown ?
  530 * 17	 02 01 2C  03 03    00 00  09 00  0A 00    00 00  09 00  0A 00 // red ?
  531 * 17	 02 01 2D  03 03    00 00  0B 00  0C 00    00 00  0B 00  0C 00 // grey ?
  // Standard bulldozer flat trailer
  532 * 4	 01 01 09 08
  // Standard bulldozer flat trailer - empty
  533 sprites/standard_trailers/medium_trailer_4_wheel.pcx 34 730 01 24 12 -3 -10
  534 sprites/standard_trailers/medium_trailer_4_wheel.pcx 66 730 09 20 26 -11 -9
  535 sprites/standard_trailers/medium_trailer_4_wheel.pcx 98 730 01 16 36 -15 -7
  536 sprites/standard_trailers/medium_trailer_4_wheel.pcx 146 730 09 20 26 -9 -7
  537 sprites/standard_trailers/medium_trailer_4_wheel.pcx 178 730 01 24 12 -9 -16
  538 sprites/standard_trailers/medium_trailer_4_wheel.pcx 210 730 09 20 26 -17 -7
  539 sprites/standard_trailers/medium_trailer_4_wheel.pcx 242 730 01 16 36 -19 -8
  540 sprites/standard_trailers/medium_trailer_4_wheel.pcx 290 730 09 20 26 -13 -10
  // Standard bulldozer flat trailer - steel, loading  
  541 sprites/standard_trailers/medium_trailer_4_wheel.pcx 34 970 01 24 12 -3 -10
  542 sprites/standard_trailers/medium_trailer_4_wheel.pcx 66 970 09 20 26 -11 -9
  543 sprites/standard_trailers/medium_trailer_4_wheel.pcx 98 970 01 16 36 -15 -7
  544 sprites/standard_trailers/medium_trailer_4_wheel.pcx 146 970 09 20 26 -9 -7
  545 sprites/standard_trailers/medium_trailer_4_wheel.pcx 178 970 01 24 12 -9 -16
  546 sprites/standard_trailers/medium_trailer_4_wheel.pcx 210 970 09 20 26 -17 -7
  547 sprites/standard_trailers/medium_trailer_4_wheel.pcx 242 970 01 16 36 -19 -8
  548 sprites/standard_trailers/medium_trailer_4_wheel.pcx 290 970 09 20 26 -13 -10
  // Standard bulldozer flat trailer - steel, loaded  
  549 sprites/standard_trailers/medium_trailer_4_wheel.pcx 34 970 01 24 12 -3 -10
  550 sprites/standard_trailers/medium_trailer_4_wheel.pcx 66 970 09 20 26 -11 -9
  551 sprites/standard_trailers/medium_trailer_4_wheel.pcx 98 970 01 16 36 -15 -7
  552 sprites/standard_trailers/medium_trailer_4_wheel.pcx 146 970 09 20 26 -9 -7
  553 sprites/standard_trailers/medium_trailer_4_wheel.pcx 178 970 01 24 12 -9 -16
  554 sprites/standard_trailers/medium_trailer_4_wheel.pcx 210 970 09 20 26 -17 -7
  555 sprites/standard_trailers/medium_trailer_4_wheel.pcx 242 970 01 16 36 -19 -8
  556 sprites/standard_trailers/medium_trailer_4_wheel.pcx 290 970 09 20 26 -13 -10
  // Standard bulldozer flat trailer - paper, loading  
  557 sprites/standard_trailers/medium_trailer_4_wheel.pcx 34 1130 01 24 12 -3 -10
  558 sprites/standard_trailers/medium_trailer_4_wheel.pcx 66 1130 09 20 26 -11 -9
  559 sprites/standard_trailers/medium_trailer_4_wheel.pcx 98 1130 01 16 36 -15 -7
  560 sprites/standard_trailers/medium_trailer_4_wheel.pcx 146 1130 09 20 26 -9 -7
  561 sprites/standard_trailers/medium_trailer_4_wheel.pcx 178 1130 01 24 12 -9 -16
  562 sprites/standard_trailers/medium_trailer_4_wheel.pcx 210 1130 09 20 26 -17 -7
  563 sprites/standard_trailers/medium_trailer_4_wheel.pcx 242 1130 01 16 36 -19 -8
  564 sprites/standard_trailers/medium_trailer_4_wheel.pcx 290 1130 09 20 26 -13 -10
  // Standard bulldozer flat trailer - paper, loaded  
  565 sprites/standard_trailers/medium_trailer_4_wheel.pcx 34 1130 01 24 12 -3 -10
  566 sprites/standard_trailers/medium_trailer_4_wheel.pcx 66 1130 09 20 26 -11 -9
  567 sprites/standard_trailers/medium_trailer_4_wheel.pcx 98 1130 01 16 36 -15 -7
  568 sprites/standard_trailers/medium_trailer_4_wheel.pcx 146 1130 09 20 26 -9 -7
  569 sprites/standard_trailers/medium_trailer_4_wheel.pcx 178 1130 01 24 12 -9 -16
  570 sprites/standard_trailers/medium_trailer_4_wheel.pcx 210 1130 09 20 26 -17 -7
  571 sprites/standard_trailers/medium_trailer_4_wheel.pcx 242 1130 01 16 36 -19 -8
  572 sprites/standard_trailers/medium_trailer_4_wheel.pcx 290 1130 09 20 26 -13 -10
 // Standard bulldozer flat trailer - livestock, loading  
  573 sprites/standard_trailers/medium_trailer_4_wheel.pcx 34 810 01 24 12 -3 -10
  574 sprites/standard_trailers/medium_trailer_4_wheel.pcx 66 810 09 20 26 -11 -9
  575 sprites/standard_trailers/medium_trailer_4_wheel.pcx 98 810 01 16 36 -15 -7
  576 sprites/standard_trailers/medium_trailer_4_wheel.pcx 146 810 09 20 26 -9 -7
  577 sprites/standard_trailers/medium_trailer_4_wheel.pcx 178 810 01 24 12 -9 -16
  578 sprites/standard_trailers/medium_trailer_4_wheel.pcx 210 810 09 20 26 -17 -7
  579 sprites/standard_trailers/medium_trailer_4_wheel.pcx 242 810 01 16 36 -19 -8
  580 sprites/standard_trailers/medium_trailer_4_wheel.pcx 290 810 09 20 26 -13 -10
 // Standard bulldozer flat trailer - livestock, loaded
  581 sprites/standard_trailers/medium_trailer_4_wheel.pcx 34 810 01 24 12 -3 -10
  582 sprites/standard_trailers/medium_trailer_4_wheel.pcx 66 810 09 20 26 -11 -9
  583 sprites/standard_trailers/medium_trailer_4_wheel.pcx 98 810 01 16 36 -15 -7
  584 sprites/standard_trailers/medium_trailer_4_wheel.pcx 146 810 09 20 26 -9 -7
  585 sprites/standard_trailers/medium_trailer_4_wheel.pcx 178 810 01 24 12 -9 -16
  586 sprites/standard_trailers/medium_trailer_4_wheel.pcx 210 810 09 20 26 -17 -7
  587 sprites/standard_trailers/medium_trailer_4_wheel.pcx 242 810 01 16 36 -19 -8
  588 sprites/standard_trailers/medium_trailer_4_wheel.pcx 290 810 09 20 26 -13 -10
 // Standard bulldozer flat trailer - copper, loading  
  589 sprites/standard_trailers/medium_trailer_4_wheel.pcx 34 1050 01 24 12 -3 -10
  590 sprites/standard_trailers/medium_trailer_4_wheel.pcx 66 1050 09 20 26 -11 -9
  591 sprites/standard_trailers/medium_trailer_4_wheel.pcx 98 1050 01 16 36 -15 -7
  592 sprites/standard_trailers/medium_trailer_4_wheel.pcx 146 1050 09 20 26 -9 -7
  593 sprites/standard_trailers/medium_trailer_4_wheel.pcx 178 1050 01 24 12 -9 -16
  594 sprites/standard_trailers/medium_trailer_4_wheel.pcx 210 1050 09 20 26 -17 -7
  595 sprites/standard_trailers/medium_trailer_4_wheel.pcx 242 1050 01 16 36 -19 -8
  596 sprites/standard_trailers/medium_trailer_4_wheel.pcx 290 1050 09 20 26 -13 -10
 // Standard bulldozer flat trailer - copper, loaded  
  597 sprites/standard_trailers/medium_trailer_4_wheel.pcx 34 1050 01 24 12 -3 -10
  598 sprites/standard_trailers/medium_trailer_4_wheel.pcx 66 1050 09 20 26 -11 -9
  599 sprites/standard_trailers/medium_trailer_4_wheel.pcx 98 1050 01 16 36 -15 -7
  600 sprites/standard_trailers/medium_trailer_4_wheel.pcx 146 1050 09 20 26 -9 -7
  601 sprites/standard_trailers/medium_trailer_4_wheel.pcx 178 1050 01 24 12 -9 -16
  602 sprites/standard_trailers/medium_trailer_4_wheel.pcx 210 1050 09 20 26 -17 -7
  603 sprites/standard_trailers/medium_trailer_4_wheel.pcx 242 1050 01 16 36 -19 -8
  604 sprites/standard_trailers/medium_trailer_4_wheel.pcx 290 1050 09 20 26 -13 -10
  605 * 17	 02 01 09  03 03   00 00  01 00  02 00    00 00  01 00  02 00 // steel
  606 * 17	 02 01 0B  03 03   00 00  03 00  04 00    00 00  03 00  04 00 // paper
  607 * 17	 02 01 04  03 03   00 00  05 00  06 00    00 00  05 00  06 00 // livestock
  608 * 17	 02 01 0F  03 03   00 00  07 00  08 00    00 00  07 00  08 00 // copper
  // Standard bulldozer flat sled
  609 * 4	 01 01 09 08
  // Standard bulldozer flat sled - empty
  610 sprites/standard_trailers/medium_sled.pcx 34 730 01 24 12 -3 -10
  611 sprites/standard_trailers/medium_sled.pcx 66 730 09 20 26 -11 -9
  612 sprites/standard_trailers/medium_sled.pcx 98 730 01 16 36 -15 -7
  613 sprites/standard_trailers/medium_sled.pcx 146 730 09 20 26 -9 -7
  614 sprites/standard_trailers/medium_sled.pcx 178 730 01 24 12 -9 -16
  615 sprites/standard_trailers/medium_sled.pcx 210 730 09 20 26 -17 -7
  616 sprites/standard_trailers/medium_sled.pcx 242 730 01 16 36 -19 -8
  617 sprites/standard_trailers/medium_sled.pcx 290 730 09 20 26 -13 -10
  // Standard bulldozer flat sled - steel, loading  
  618 sprites/standard_trailers/medium_sled.pcx 34 970 01 24 12 -3 -10
  619 sprites/standard_trailers/medium_sled.pcx 66 970 09 20 26 -11 -9
  620 sprites/standard_trailers/medium_sled.pcx 98 970 01 16 36 -15 -7
  621 sprites/standard_trailers/medium_sled.pcx 146 970 09 20 26 -9 -7
  622 sprites/standard_trailers/medium_sled.pcx 178 970 01 24 12 -9 -16
  623 sprites/standard_trailers/medium_sled.pcx 210 970 09 20 26 -17 -7
  624 sprites/standard_trailers/medium_sled.pcx 242 970 01 16 36 -19 -8
  625 sprites/standard_trailers/medium_sled.pcx 290 970 09 20 26 -13 -10
  // Standard bulldozer flat sled - steel, loaded  
  626 sprites/standard_trailers/medium_sled.pcx 34 970 01 24 12 -3 -10
  627 sprites/standard_trailers/medium_sled.pcx 66 970 09 20 26 -11 -9
  628 sprites/standard_trailers/medium_sled.pcx 98 970 01 16 36 -15 -7
  629 sprites/standard_trailers/medium_sled.pcx 146 970 09 20 26 -9 -7
  630 sprites/standard_trailers/medium_sled.pcx 178 970 01 24 12 -9 -16
  631 sprites/standard_trailers/medium_sled.pcx 210 970 09 20 26 -17 -7
  632 sprites/standard_trailers/medium_sled.pcx 242 970 01 16 36 -19 -8
  633 sprites/standard_trailers/medium_sled.pcx 290 970 09 20 26 -13 -10
  // Standard bulldozer flat sled - paper, loading  
  634 sprites/standard_trailers/medium_sled.pcx 34 1130 01 24 12 -3 -10
  635 sprites/standard_trailers/medium_sled.pcx 66 1130 09 20 26 -11 -9
  636 sprites/standard_trailers/medium_sled.pcx 98 1130 01 16 36 -15 -7
  637 sprites/standard_trailers/medium_sled.pcx 146 1130 09 20 26 -9 -7
  638 sprites/standard_trailers/medium_sled.pcx 178 1130 01 24 12 -9 -16
  639 sprites/standard_trailers/medium_sled.pcx 210 1130 09 20 26 -17 -7
  640 sprites/standard_trailers/medium_sled.pcx 242 1130 01 16 36 -19 -8
  641 sprites/standard_trailers/medium_sled.pcx 290 1130 09 20 26 -13 -10
  // Standard bulldozer flat sled - paper, loaded  
  642 sprites/standard_trailers/medium_sled.pcx 34 1130 01 24 12 -3 -10
  643 sprites/standard_trailers/medium_sled.pcx 66 1130 09 20 26 -11 -9
  644 sprites/standard_trailers/medium_sled.pcx 98 1130 01 16 36 -15 -7
  645 sprites/standard_trailers/medium_sled.pcx 146 1130 09 20 26 -9 -7
  646 sprites/standard_trailers/medium_sled.pcx 178 1130 01 24 12 -9 -16
  647 sprites/standard_trailers/medium_sled.pcx 210 1130 09 20 26 -17 -7
  648 sprites/standard_trailers/medium_sled.pcx 242 1130 01 16 36 -19 -8
  649 sprites/standard_trailers/medium_sled.pcx 290 1130 09 20 26 -13 -10
 // Standard bulldozer flat sled - livestock, loading  
  650 sprites/standard_trailers/medium_sled.pcx 34 810 01 24 12 -3 -10
  651 sprites/standard_trailers/medium_sled.pcx 66 810 09 20 26 -11 -9
  652 sprites/standard_trailers/medium_sled.pcx 98 810 01 16 36 -15 -7
  653 sprites/standard_trailers/medium_sled.pcx 146 810 09 20 26 -9 -7
  654 sprites/standard_trailers/medium_sled.pcx 178 810 01 24 12 -9 -16
  655 sprites/standard_trailers/medium_sled.pcx 210 810 09 20 26 -17 -7
  656 sprites/standard_trailers/medium_sled.pcx 242 810 01 16 36 -19 -8
  657 sprites/standard_trailers/medium_sled.pcx 290 810 09 20 26 -13 -10
 // Standard bulldozer flat sled - livestock, loaded
  658 sprites/standard_trailers/medium_sled.pcx 34 810 01 24 12 -3 -10
  659 sprites/standard_trailers/medium_sled.pcx 66 810 09 20 26 -11 -9
  660 sprites/standard_trailers/medium_sled.pcx 98 810 01 16 36 -15 -7
  661 sprites/standard_trailers/medium_sled.pcx 146 810 09 20 26 -9 -7
  662 sprites/standard_trailers/medium_sled.pcx 178 810 01 24 12 -9 -16
  663 sprites/standard_trailers/medium_sled.pcx 210 810 09 20 26 -17 -7
  664 sprites/standard_trailers/medium_sled.pcx 242 810 01 16 36 -19 -8
  665 sprites/standard_trailers/medium_sled.pcx 290 810 09 20 26 -13 -10
 // Standard bulldozer flat sled - copper, loading  
  666 sprites/standard_trailers/medium_sled.pcx 34 1050 01 24 12 -3 -10
  667 sprites/standard_trailers/medium_sled.pcx 66 1050 09 20 26 -11 -9
  668 sprites/standard_trailers/medium_sled.pcx 98 1050 01 16 36 -15 -7
  669 sprites/standard_trailers/medium_sled.pcx 146 1050 09 20 26 -9 -7
  670 sprites/standard_trailers/medium_sled.pcx 178 1050 01 24 12 -9 -16
  671 sprites/standard_trailers/medium_sled.pcx 210 1050 09 20 26 -17 -7
  672 sprites/standard_trailers/medium_sled.pcx 242 1050 01 16 36 -19 -8
  673 sprites/standard_trailers/medium_sled.pcx 290 1050 09 20 26 -13 -10
 // Standard bulldozer flat sled - copper, loaded  
  674 sprites/standard_trailers/medium_sled.pcx 34 1050 01 24 12 -3 -10
  675 sprites/standard_trailers/medium_sled.pcx 66 1050 09 20 26 -11 -9
  676 sprites/standard_trailers/medium_sled.pcx 98 1050 01 16 36 -15 -7
  677 sprites/standard_trailers/medium_sled.pcx 146 1050 09 20 26 -9 -7
  678 sprites/standard_trailers/medium_sled.pcx 178 1050 01 24 12 -9 -16
  679 sprites/standard_trailers/medium_sled.pcx 210 1050 09 20 26 -17 -7
  680 sprites/standard_trailers/medium_sled.pcx 242 1050 01 16 36 -19 -8
  681 sprites/standard_trailers/medium_sled.pcx 290 1050 09 20 26 -13 -10
  682 * 17	 02 01 29  03 03   00 00  01 00  02 00    00 00  01 00  02 00 // steel
  683 * 17	 02 01 2B  03 03   00 00  03 00  04 00    00 00  03 00  04 00 // paper
  684 * 17	 02 01 24  03 03   00 00  05 00  06 00    00 00  05 00  06 00 // livestock
  685 * 17	 02 01 2F  03 03   00 00  07 00  08 00    00 00  07 00  08 00 // copper
  686 * 4	 01 01 03 08  
    // Standard bulldozer stake trailer - empty
  687 sprites/standard_trailers/medium_trailer_4_wheel.pcx 34 610 01 24 12 -3 -10
  688 sprites/standard_trailers/medium_trailer_4_wheel.pcx 66 610 09 20 26 -11 -9
  689 sprites/standard_trailers/medium_trailer_4_wheel.pcx 98 610 01 16 36 -15 -7
  690 sprites/standard_trailers/medium_trailer_4_wheel.pcx 146 610 09 20 26 -9 -7
  691 sprites/standard_trailers/medium_trailer_4_wheel.pcx 178 610 01 24 12 -9 -16
  692 sprites/standard_trailers/medium_trailer_4_wheel.pcx 210 610 09 20 26 -17 -7
  693 sprites/standard_trailers/medium_trailer_4_wheel.pcx 242 610 01 16 36 -19 -8
  694 sprites/standard_trailers/medium_trailer_4_wheel.pcx 290 610 09 20 26 -13 -10
    // Standard bulldozer stake trailer - Wood, loading  
  695 sprites/standard_trailers/medium_trailer_4_wheel.pcx 34 650 01 24 12 -3 -10
  696 sprites/standard_trailers/medium_trailer_4_wheel.pcx 66 650 09 20 26 -11 -9
  697 sprites/standard_trailers/medium_trailer_4_wheel.pcx 98 650 01 16 36 -15 -7
  698 sprites/standard_trailers/medium_trailer_4_wheel.pcx 146 650 09 20 26 -9 -7
  699 sprites/standard_trailers/medium_trailer_4_wheel.pcx 178 650 01 24 12 -9 -16
  700 sprites/standard_trailers/medium_trailer_4_wheel.pcx 210 650 09 20 26 -17 -7
  701 sprites/standard_trailers/medium_trailer_4_wheel.pcx 242 650 01 16 36 -19 -8
  702 sprites/standard_trailers/medium_trailer_4_wheel.pcx 290 650 09 20 26 -13 -10
    // Standard bulldozer stake trailer - Wood, loaded  
  703 sprites/standard_trailers/medium_trailer_4_wheel.pcx 34 690 01 24 12 -3 -10
  704 sprites/standard_trailers/medium_trailer_4_wheel.pcx 66 690 09 20 26 -11 -9
  705 sprites/standard_trailers/medium_trailer_4_wheel.pcx 98 690 01 16 36 -15 -7
  706 sprites/standard_trailers/medium_trailer_4_wheel.pcx 146 690 09 20 26 -9 -7
  707 sprites/standard_trailers/medium_trailer_4_wheel.pcx 178 690 01 24 12 -9 -16
  708 sprites/standard_trailers/medium_trailer_4_wheel.pcx 210 690 09 20 26 -17 -7
  709 sprites/standard_trailers/medium_trailer_4_wheel.pcx 242 690 01 16 36 -19 -8
  710 sprites/standard_trailers/medium_trailer_4_wheel.pcx 290 690 09 20 26 -13 -10
  711 * 17	 02 01 07  03 03   00 00  01 00  02 00    00 00  01 00  02 00 // wood
  712 * 4	 01 01 03 08  
    // Standard bulldozer stake sled - empty
  713 sprites/standard_trailers/medium_sled.pcx 34 610 01 24 12 -3 -10
  714 sprites/standard_trailers/medium_sled.pcx 66 610 09 20 26 -11 -9
  715 sprites/standard_trailers/medium_sled.pcx 98 610 01 16 36 -15 -7
  716 sprites/standard_trailers/medium_sled.pcx 146 610 09 20 26 -9 -7
  717 sprites/standard_trailers/medium_sled.pcx 178 610 01 24 12 -9 -16
  718 sprites/standard_trailers/medium_sled.pcx 210 610 09 20 26 -17 -7
  719 sprites/standard_trailers/medium_sled.pcx 242 610 01 16 36 -19 -8
  720 sprites/standard_trailers/medium_sled.pcx 290 610 09 20 26 -13 -10
    // Standard bulldozer stake sled - Wood, loading  
  721 sprites/standard_trailers/medium_sled.pcx 34 650 01 24 12 -3 -10
  722 sprites/standard_trailers/medium_sled.pcx 66 650 09 20 26 -11 -9
  723 sprites/standard_trailers/medium_sled.pcx 98 650 01 16 36 -15 -7
  724 sprites/standard_trailers/medium_sled.pcx 146 650 09 20 26 -9 -7
  725 sprites/standard_trailers/medium_sled.pcx 178 650 01 24 12 -9 -16
  726 sprites/standard_trailers/medium_sled.pcx 210 650 09 20 26 -17 -7
  727 sprites/standard_trailers/medium_sled.pcx 242 650 01 16 36 -19 -8
  728 sprites/standard_trailers/medium_sled.pcx 290 650 09 20 26 -13 -10
    // Standard bulldozer stake sled - Wood, loaded  
  729 sprites/standard_trailers/medium_sled.pcx 34 690 01 24 12 -3 -10
  730 sprites/standard_trailers/medium_sled.pcx 66 690 09 20 26 -11 -9
  731 sprites/standard_trailers/medium_sled.pcx 98 690 01 16 36 -15 -7
  732 sprites/standard_trailers/medium_sled.pcx 146 690 09 20 26 -9 -7
  733 sprites/standard_trailers/medium_sled.pcx 178 690 01 24 12 -9 -16
  734 sprites/standard_trailers/medium_sled.pcx 210 690 09 20 26 -17 -7
  735 sprites/standard_trailers/medium_sled.pcx 242 690 01 16 36 -19 -8
  736 sprites/standard_trailers/medium_sled.pcx 290 690 09 20 26 -13 -10
  737 * 17	 02 01 27  03 03   00 00  01 00  02 00    00 00  01 00  02 00 // wood
    // Standard bulldozer tank trailer
  738 * 4	 01 01 01 08
  739 sprites/standard_trailers/medium_trailer_4_wheel.pcx 34 10 01 24 12 -3 -10
  740 sprites/standard_trailers/medium_trailer_4_wheel.pcx 66 10 09 20 26 -11 -9
  741 sprites/standard_trailers/medium_trailer_4_wheel.pcx 98 10 01 16 36 -15 -7
  742 sprites/standard_trailers/medium_trailer_4_wheel.pcx 146 10 09 20 26 -9 -7
  743 sprites/standard_trailers/medium_trailer_4_wheel.pcx 178 10 01 24 12 -9 -16
  744 sprites/standard_trailers/medium_trailer_4_wheel.pcx 210 10 09 20 26 -17 -7
  745 sprites/standard_trailers/medium_trailer_4_wheel.pcx 242 10 01 16 36 -19 -8
  746 sprites/standard_trailers/medium_trailer_4_wheel.pcx 290 10 09 20 26 -13 -10
  747 * 9	 02 01 03   01 01    00 00    00 00 // tank trailer
    // Standard bulldozer tank trailer
  748 * 4	 01 01 01 08
  749 sprites/standard_trailers/medium_sled.pcx 34 10 01 24 12 -3 -10
  750 sprites/standard_trailers/medium_sled.pcx 66 10 09 20 26 -11 -9
  751 sprites/standard_trailers/medium_sled.pcx 98 10 01 16 36 -15 -7
  752 sprites/standard_trailers/medium_sled.pcx 146 10 09 20 26 -9 -7
  753 sprites/standard_trailers/medium_sled.pcx 178 10 01 24 12 -9 -16
  754 sprites/standard_trailers/medium_sled.pcx 210 10 09 20 26 -17 -7
  755 sprites/standard_trailers/medium_sled.pcx 242 10 01 16 36 -19 -8
  756 sprites/standard_trailers/medium_sled.pcx 290 10 09 20 26 -13 -10
  757 * 9	 02 01 23   01 01    00 00    00 00 // tank sled
  // Rough order of business here:
      // set length and refit texts
      // choose sleds or trailers action 2 branch
      // find cargo of vehicle, choose action 2 matching
  758 * 66	 02 01 CE  // choose sled sprites according to cargo
                 81 47 00 FF // var 47 in format ccccwwtt where I want tt 
                 0E // range
                  21 00 01 01 // coal
                  26 00 06 06 // grain 
                  26 00 1B 1B // wheat 
                  26 00 1D 1D // maize 
                  28 00 08 08 // iron ore
                  23 00 03 03 // oil
                  23 00 0F 0F // water
                  23 00 10 10 // rubber
                  24 00 04 04 // livestock                  
                  29 00 09 09 // steel                  
                  27 00 07 07 // wood  
                  2B 00 0B 0B // paper
                  2E 00 0E 0E // copper ore
                  27 00 1E 1E // tropical wood
                 25 00 // default 
  759 * 66	 02 01 CD  // choose wheeled trailer sprites according to cargo slot (in cargo translation tt)
                 81 47 00 FF // var 47 in format ccccwwtt where I want tt 
                 0E // range
                  01 00 01 01 // coal
                  06 00 06 06 // grain 
                  06 00 1B 1B // wheat 
                  06 00 1D 1D // maize 
                  08 00 08 08 // iron ore
                  03 00 03 03 // oil
                  03 00 0F 0F // water
                  03 00 10 10 // rubber
                  04 00 04 04 // livestock                  
                  09 00 09 09 // steel                  
                  07 00 07 07 // wood  
                  0B 00 0B 0B // paper
                  0E 00 0E 0E // copper ore
                  07 00 1E 1E // tropical wood
                 05 00 // default 
  760 * 18	 02 01 CC  // set refit text strings
                 81 F2 00 FF //
                 02 // range
                  00 80 00 00 
                  01 80 01 01 
                 FF 80 // end callback chain
  761 * 18	 02 01 CB  // choose sprites according to refit
                 81 F2 00 FF //
                 02 // range
                  CD 00 00 00 // wheeled trailers 
                  CE 00 01 01 // sleds
                 05 00 // default 
  762 * 18	 02 01 C0  // handle callbacks
                 81 0C 00 FF //
                 02 // range
                  02 80 11 11 // vehicle length CB
                  CC 00 19 19 // text suffix CB 
                 CB 00 // graphics
  763 * 7	 03 01 01 6E // Action 3
    00 // Number of different cargo types to support (!! Hex) 
	  C0 00 // default
  764 * 7	 03 01 01 6F // Action 3
    00 // Number of different cargo types to support (!! Hex) 
	  C0 00 // default
  765 * 7	 03 01 01 70 // Action 3
    00 // Number of different cargo types to support (!! Hex) 
	  C0 00 // default
  766 * 7	 03 01 01 71 // Action 3
    00 // Number of different cargo types to support (!! Hex) 
	  C0 00 // default
  767 * 7	 03 01 01 72 // Action 3
    00 // Number of different cargo types to support (!! Hex) 
	  C0 00 // default
  768 * 7	 03 01 01 73 // Action 3
    00 // Number of different cargo types to support (!! Hex) 
	  C0 00 // default


  // Bulldozer trailer large
       // Rough order of business here
       // Bulldozer trailers vary capacity depending on date vehicle is built
       // Can't get CB 36 to do that on build, only on refit (oh so close)
       // So instead define multiple vehicles using the same real sprites
       // Only difference is capacity
       // Lead vehicle chooses different trailers depending on date
       // This is inefficient on source code, also on ID use, but we have 255 IDs to play with so should be ok.
     // NOTE: Don't use IDs > 128 for trailers in articulated consists (lead vehicle ID can be > 128)
  769 * 67	 00 01 19 01 74
      00 00 00  // intro date
      02 20     // reliability
      03 19     // vehicle life
      04 23     // class life
      06 00     // climate
      07 05     // load amount
      08 E0     // speed in mph * 3.2
      09 08     // running cost factor
      0A 48 4C 00 00 13 00 14 20    // running cost base
      0E FF     // sprite ID
      0F \b12     // capacity
      10 06     // cargo type
      11 00     // cost factor
      12 00     // sound effect
      15 38     // speed in mph * 0.8
      16 00 00 00 00    // Bit mask of cargo types available for refitting
      17 30     // Callback flags bit mask
      1A 00     // Refit cost, using 25% of the purchase price cost base
      1B 00     // Retire vehicle early, this many years before the end of phase 2
      1C 02     // Miscellaneous vehicle flags 
      1D FF 03      // Refittable cargo classes
      1E 01 00      // Non-refittable cargo classes
      1F 60 B3 0A 00    // Long format introduction date     
  770 * 67	 00 01 19 01 75
      00 00 00  // intro date
      02 20     // reliability
      03 19     // vehicle life
[...]
 2269 * 33	 04 01 7F 01 D5 "Rockchuck Peak Mining Truck" 00  
 2270 * 4	 01 01 07 08
  // Rockchuck Peak 95t hauler empty
 2271 sprites/mining_trucks/95t_mining_truck.pcx 34 10 01 24 12 -5 -13
 2272 sprites/mining_trucks/95t_mining_truck.pcx 66 10 09 20 26 -15 -8
 2273 sprites/mining_trucks/95t_mining_truck.pcx 98 10 01 16 36 -18 -8
 2274 sprites/mining_trucks/95t_mining_truck.pcx 146 10 09 20 26 -11 -9
 2275 sprites/mining_trucks/95t_mining_truck.pcx 178 10 01 24 12 -5 -13
 2276 sprites/mining_trucks/95t_mining_truck.pcx 210 10 09 20 26 -16 -9
 2277 sprites/mining_trucks/95t_mining_truck.pcx 242 10 01 16 36 -20 -10
 2278 sprites/mining_trucks/95t_mining_truck.pcx 290 10 09 20 26 -10 -11
  // Rockchuck Peak 95t hauler coal
 2279 sprites/mining_trucks/95t_mining_truck_coal.pcx 34 10 01 24 12 -5 -13
 2280 sprites/mining_trucks/95t_mining_truck_coal.pcx 66 10 09 20 26 -15 -8
 2281 sprites/mining_trucks/95t_mining_truck_coal.pcx 98 10 01 16 36 -18 -8
 2282 sprites/mining_trucks/95t_mining_truck_coal.pcx 146 10 09 20 26 -11 -9
 2283 sprites/mining_trucks/95t_mining_truck_coal.pcx 178 10 01 24 12 -5 -13
 2284 sprites/mining_trucks/95t_mining_truck_coal.pcx 210 10 09 20 26 -16 -9
 2285 sprites/mining_trucks/95t_mining_truck_coal.pcx 242 10 01 16 36 -20 -10
 2286 sprites/mining_trucks/95t_mining_truck_coal.pcx 290 10 09 20 26 -10 -11
  // Rockchuck Peak 95t hauler iron
 2287 sprites/mining_trucks/95t_mining_truck_iron.pcx 34 10 01 24 12 -5 -13
 2288 sprites/mining_trucks/95t_mining_truck_iron.pcx 66 10 09 20 26 -15 -8
 2289 sprites/mining_trucks/95t_mining_truck_iron.pcx 98 10 01 16 36 -18 -8
 2290 sprites/mining_trucks/95t_mining_truck_iron.pcx 146 10 09 20 26 -11 -9
 2291 sprites/mining_trucks/95t_mining_truck_iron.pcx 178 10 01 24 12 -5 -13
 2292 sprites/mining_trucks/95t_mining_truck_iron.pcx 210 10 09 20 26 -16 -9
 2293 sprites/mining_trucks/95t_mining_truck_iron.pcx 242 10 01 16 36 -20 -10
 2294 sprites/mining_trucks/95t_mining_truck_iron.pcx 290 10 09 20 26 -10 -11
  // Rockchuck Peak 95t hauler brown
 2295 sprites/mining_trucks/95t_mining_truck_brown.pcx 34 10 01 24 12 -5 -13
 2296 sprites/mining_trucks/95t_mining_truck_brown.pcx 66 10 09 20 26 -15 -8
 2297 sprites/mining_trucks/95t_mining_truck_brown.pcx 98 10 01 16 36 -18 -8
 2298 sprites/mining_trucks/95t_mining_truck_brown.pcx 146 10 09 20 26 -11 -9
 2299 sprites/mining_trucks/95t_mining_truck_brown.pcx 178 10 01 24 12 -5 -13
 2300 sprites/mining_trucks/95t_mining_truck_brown.pcx 210 10 09 20 26 -16 -9
 2301 sprites/mining_trucks/95t_mining_truck_brown.pcx 242 10 01 16 36 -20 -10
 2302 sprites/mining_trucks/95t_mining_truck_brown.pcx 290 10 09 20 26 -10 -11
  // Rockchuck Peak 95t hauler white
 2303 sprites/mining_trucks/95t_mining_truck_white.pcx 34 10 01 24 12 -5 -13
 2304 sprites/mining_trucks/95t_mining_truck_white.pcx 66 10 09 20 26 -15 -8
 2305 sprites/mining_trucks/95t_mining_truck_white.pcx 98 10 01 16 36 -18 -8
 2306 sprites/mining_trucks/95t_mining_truck_white.pcx 146 10 09 20 26 -11 -9
 2307 sprites/mining_trucks/95t_mining_truck_white.pcx 178 10 01 24 12 -5 -13
 2308 sprites/mining_trucks/95t_mining_truck_white.pcx 210 10 09 20 26 -16 -9
 2309 sprites/mining_trucks/95t_mining_truck_white.pcx 242 10 01 16 36 -20 -10
 2310 sprites/mining_trucks/95t_mining_truck_white.pcx 290 10 09 20 26 -10 -11
  // Rockchuck Peak 95t hauler red
 2311 sprites/mining_trucks/95t_mining_truck_red.pcx 34 10 01 24 12 -5 -13
 2312 sprites/mining_trucks/95t_mining_truck_red.pcx 66 10 09 20 26 -15 -8
 2313 sprites/mining_trucks/95t_mining_truck_red.pcx 98 10 01 16 36 -18 -8
 2314 sprites/mining_trucks/95t_mining_truck_red.pcx 146 10 09 20 26 -11 -9
 2315 sprites/mining_trucks/95t_mining_truck_red.pcx 178 10 01 24 12 -5 -13
 2316 sprites/mining_trucks/95t_mining_truck_red.pcx 210 10 09 20 26 -16 -9
 2317 sprites/mining_trucks/95t_mining_truck_red.pcx 242 10 01 16 36 -20 -10
 2318 sprites/mining_trucks/95t_mining_truck_red.pcx 290 10 09 20 26 -10 -11
  // Rockchuck Peak 95t hauler grey 
 2319 sprites/mining_trucks/95t_mining_truck_grey.pcx 34 10 01 24 12 -5 -13
 2320 sprites/mining_trucks/95t_mining_truck_grey.pcx 66 10 09 20 26 -15 -8
 2321 sprites/mining_trucks/95t_mining_truck_grey.pcx 98 10 01 16 36 -18 -8
 2322 sprites/mining_trucks/95t_mining_truck_grey.pcx 146 10 09 20 26 -11 -9
 2323 sprites/mining_trucks/95t_mining_truck_grey.pcx 178 10 01 24 12 -5 -13
 2324 sprites/mining_trucks/95t_mining_truck_grey.pcx 210 10 09 20 26 -16 -9
 2325 sprites/mining_trucks/95t_mining_truck_grey.pcx 242 10 01 16 36 -20 -10
 2326 sprites/mining_trucks/95t_mining_truck_grey.pcx 290 10 09 20 26 -10 -11
 2327 * 13	 02 01 A1 02 02 00 00 01 00 00 00 01 00
 2328 * 13	 02 01 A2 02 02 00 00 02 00 00 00 02 00
 2329 * 13	 02 01 A3 02 02 00 00 03 00 00 00 03 00
 2330 * 13	 02 01 A4 02 02 00 00 04 00 00 00 04 00
 2331 * 13	 02 01 A5 02 02 00 00 05 00 00 00 05 00
 2332 * 13	 02 01 A6 02 02 00 00 06 00 00 00 06 00
 2333 * 4	 01 01 01 04 // depot sprites
 2334 * 1	 00
 2335 * 1	 00
 2336 sprites/mining_trucks/95t_mining_truck.pcx 370 14 01 12 36 -14 -6
 2337 * 1	 00
 2338 * 9	 02 01 AF 01 01 00 00 00 00
 2339 * 25	 03 01 01 D5 // Action 3 
   06 // number of cargo types to support
   01 A1 00
   08 A2 00
   0E A3 00 
   11 A4 00
   17 A5 00
   FF AF 00 // buy menu sprites
   A6 00 // default sprites

  // Camelback Mountain Mining Truck  240t		2001-2050	37mph
 2340 * 67	 00 01 19 01 D6
    00 \w1-1-1920  // intro date
    02 20     // reliability
    03 19     // vehicle life
    04 19     // class life
    06 0F     // climate
    07 05     // load amount
    08 \b119     // speed in mph * 3.2
    09 50     // running cost factor
    0A 48 4C 00 00 13 28 14 C8        // running cost base
    0E FF     // sprite ID
    0F 00     // capacity
    10 FF     // cargo type 
    11 5D     // cost factor
    12 19     // sound effect
    15 \b30     // speed in mph * 0.8
    16 40 00 00 28     // Bit mask of cargo types available for refitting
    // flips 1D / 1E values: excludes grain, wheat, maize
    17 12     // Callback flags bit mask
    1A 00     // Refit cost, using 25% of the purchase price cost base
    1B 00     // Retire vehicle early, this many years before the end of phase 2
    1C 02     // Miscellaneous vehicle flags
    1D 10 00          // Refittable cargo classes
    1E EF 03          // Non-refittable cargo classes
    1F 8D
    26 0B 00    // Long format introduction date
 2341 * 37	 04 01 7F 01 D6 "Camelback Mountain Mining Truck" 00
 2342 * 43	 04 01 81 01 D4 D0 "Hauls: " 8A "Two 120t belly-dump trailers" 00 // (240t total)
 2343 * 4	 01 01 01 08
  // Kilimanjaro (Articulated) dump truck empty
 2344 sprites/off_highway_trucks/mining_truck_chassis.pcx 34 10 01 24 12 -5 -16
 2345 sprites/off_highway_trucks/mining_truck_chassis.pcx 66 10 09 20 26 -15 -8
 2346 sprites/off_highway_trucks/mining_truck_chassis.pcx 98 10 01 16 36 -18 -10
 2347 sprites/off_highway_trucks/mining_truck_chassis.pcx 146 10 09 20 26 -11 -9
 2348 sprites/off_highway_trucks/mining_truck_chassis.pcx 178 10 01 24 12 -5 -15
 2349 sprites/off_highway_trucks/mining_truck_chassis.pcx 210 10 09 20 26 -16 -9
 2350 sprites/off_highway_trucks/mining_truck_chassis.pcx 242 10 01 16 36 -20 -10
 2351 sprites/off_highway_trucks/mining_truck_chassis.pcx 290 10 09 20 26 -10 -11
 2352 * 9	 02 01 A1 01 01 00 00 00 00 //normal action2 defining graphics with no loading/loaded stages
 2353 * 4	 01 01 01 04
 2354 * 1	 00
 2355 * 1	 00
 2356 sprites/off_highway_trucks/mining_truck_chassis.pcx 370 14 01 12 36 -14 -6
 2357 * 1	 00
 2358 * 9	 02 01 F1 // action2 buy menu sprites 
      01 // number loading states
      01 // number loaded states
      00 00 // loading sprites
      00 00 // loaded sprites
 2359 * 14	 02 01 F0 // varaction 2 handles buy menu callbacks 
                 81 0C 00 FF //check byte value of variable 81 (no bit shift, FF andmask)
                 01 // range
                   D4 80 23 23 // text for vehicle window
                 F1 00 //otherwise go to next action 2 ID 
 2360 * 22	 02 01 B0 //ID B0
               81 10 00 FF //check byte value of variable 10 (no bit shift, FF andmask)
               03 //check one ranges
               07 80 01 01 //give callback result
               05 80 02 02 //give callback result
               07 80 03 03 //give callback result
               FF FF //otherwise end the callback chain
 2361 * 14	 02 01 B6 // provide correct refit/capacity information in buy menu (credits to DJ Nekkid for solution)
               82 40 10 FF // check vehicle length    
               01 // check one range
                 F0 00 00 00 // if length is 0 use purchase menu sprite
               A1 00 // else go to action 2 to apply graphics
 2362 * 18	 02 01 B1 //
               81 0C 00 FF // handle callbacks
               02 // range
                 02 80 11 11 // vehicle length CB
                 B0 00 16 16 // articulated vehicle building instructions
               B6 00 //otherwise go to next action 2 ID 
 2363 * 7	 03 01 01 D6  // Action 3
    00  // Number of different cargo types to support 
    B1 00   // Action 2 ID above  

  // Kilimanjaro Mining Hauler  160t	1200hp	1990-2050	57mph
 2364 * 67	 00 01 19 01 D7
    00 \w1-1-1920  // intro date
    02 20     // reliability
    03 19     // vehicle life
    04 19     // class life
    06 0F     // climate
    07 05     // load amount
    08 \b182     // speed in mph * 3.2
    09 50     // running cost factor
    0A 48 4C 00 00 13 28 14 C8        // running cost base
    0E FF     // sprite ID
    0F \b160     // capacity
    10 FF     // cargo type 
    11 5D     // cost factor
    12 19     // sound effect
    15 \b46     // speed in mph * 0.8
    16 40 00 00 28     // Bit mask of cargo types available for refitting
    // flips 1D / 1E values: excludes grain, wheat, maize
    17 00     // Callback flags bit mask
    1A 00     // Refit cost, using 25% of the purchase price cost base
    1B 00     // Retire vehicle early, this many years before the end of phase 2
    1C 02     // Miscellaneous vehicle flags
    1D 10 00          // Refittable cargo classes
    1E EF 03          // Non-refittable cargo classes
    1F \d726840   // Long format introduction date (dword)
 2365 * 39	 04 01 7F 01 D7 "Kilimanjaro Unitised Mining Truck" 00
 2366 * 4	 01 01 07 08
  // unitised hauler empty
 2367 sprites/mining_trucks/unitised_mining_truck.pcx 34 10 01 24 12 -5 -15
 2368 sprites/mining_trucks/unitised_mining_truck.pcx 66 10 01 22 30 -17 -10
 2369 sprites/mining_trucks/unitised_mining_truck.pcx 98 10 01 16 36 -14 -9
 2370 sprites/mining_trucks/unitised_mining_truck.pcx 146 10 01 22 30 -10 -10
 2371 sprites/mining_trucks/unitised_mining_truck.pcx 178 10 01 24 12 -5 -13
 2372 sprites/mining_trucks/unitised_mining_truck.pcx 210 10 01 22 30 -18 -11
 2373 sprites/mining_trucks/unitised_mining_truck.pcx 242 10 01 16 36 -14 -10
 2374 sprites/mining_trucks/unitised_mining_truck.pcx 290 10 01 22 30 -9 -11
  // unitised hauler coal
 2375 sprites/mining_trucks/unitised_mining_truck_coal.pcx 34 10 01 24 12 -5 -15
 2376 sprites/mining_trucks/unitised_mining_truck_coal.pcx 66 10 01 22 30 -17 -10
 2377 sprites/mining_trucks/unitised_mining_truck_coal.pcx 98 10 01 16 36 -14 -9
 2378 sprites/mining_trucks/unitised_mining_truck_coal.pcx 146 10 01 22 30 -10 -10
 2379 sprites/mining_trucks/unitised_mining_truck_coal.pcx 178 10 01 24 12 -5 -13
 2380 sprites/mining_trucks/unitised_mining_truck_coal.pcx 210 10 01 22 30 -18 -11
 2381 sprites/mining_trucks/unitised_mining_truck_coal.pcx 242 10 01 16 36 -14 -10
 2382 sprites/mining_trucks/unitised_mining_truck_coal.pcx 290 10 01 22 30 -9 -11
  // unitised hauler iron 
 2383 sprites/mining_trucks/unitised_mining_truck_iron.pcx 34 10 01 24 12 -5 -15
 2384 sprites/mining_trucks/unitised_mining_truck_iron.pcx 66 10 01 22 30 -17 -10
 2385 sprites/mining_trucks/unitised_mining_truck_iron.pcx 98 10 01 16 36 -14 -9
 2386 sprites/mining_trucks/unitised_mining_truck_iron.pcx 146 10 01 22 30 -10 -10
 2387 sprites/mining_trucks/unitised_mining_truck_iron.pcx 178 10 01 24 12 -5 -13
 2388 sprites/mining_trucks/unitised_mining_truck_iron.pcx 210 10 01 22 30 -18 -11
 2389 sprites/mining_trucks/unitised_mining_truck_iron.pcx 242 10 01 16 36 -14 -10
 2390 sprites/mining_trucks/unitised_mining_truck_iron.pcx 290 10 01 22 30 -9 -11
  // unitised hauler brown
 2391 sprites/mining_trucks/unitised_mining_truck_brown.pcx 34 10 01 24 12 -5 -15
 2392 sprites/mining_trucks/unitised_mining_truck_brown.pcx 66 10 01 22 30 -17 -10
 2393 sprites/mining_trucks/unitised_mining_truck_brown.pcx 98 10 01 16 36 -14 -9
 2394 sprites/mining_trucks/unitised_mining_truck_brown.pcx 146 10 01 22 30 -10 -10
 2395 sprites/mining_trucks/unitised_mining_truck_brown.pcx 178 10 01 24 12 -5 -13
 2396 sprites/mining_trucks/unitised_mining_truck_brown.pcx 210 10 01 22 30 -18 -11
 2397 sprites/mining_trucks/unitised_mining_truck_brown.pcx 242 10 01 16 36 -14 -10
 2398 sprites/mining_trucks/unitised_mining_truck_brown.pcx 290 10 01 22 30 -9 -11
  // unitised hauler white 
 2399 sprites/mining_trucks/unitised_mining_truck_white.pcx 34 10 01 24 12 -5 -15
 2400 sprites/mining_trucks/unitised_mining_truck_white.pcx 66 10 01 22 30 -17 -10
 2401 sprites/mining_trucks/unitised_mining_truck_white.pcx 98 10 01 16 36 -14 -9
 2402 sprites/mining_trucks/unitised_mining_truck_white.pcx 146 10 01 22 30 -10 -10
 2403 sprites/mining_trucks/unitised_mining_truck_white.pcx 178 10 01 24 12 -5 -13
 2404 sprites/mining_trucks/unitised_mining_truck_white.pcx 210 10 01 22 30 -18 -11
 2405 sprites/mining_trucks/unitised_mining_truck_white.pcx 242 10 01 16 36 -14 -10
 2406 sprites/mining_trucks/unitised_mining_truck_white.pcx 290 10 01 22 30 -9 -11
  // unitised hauler red
 2407 sprites/mining_trucks/unitised_mining_truck_red.pcx 34 10 01 24 12 -5 -15
 2408 sprites/mining_trucks/unitised_mining_truck_red.pcx 66 10 01 22 30 -17 -10
 2409 sprites/mining_trucks/unitised_mining_truck_red.pcx 98 10 01 16 36 -14 -9
 2410 sprites/mining_trucks/unitised_mining_truck_red.pcx 146 10 01 22 30 -10 -10
 2411 sprites/mining_trucks/unitised_mining_truck_red.pcx 178 10 01 24 12 -5 -13
 2412 sprites/mining_trucks/unitised_mining_truck_red.pcx 210 10 01 22 30 -18 -11
 2413 sprites/mining_trucks/unitised_mining_truck_red.pcx 242 10 01 16 36 -14 -10
 2414 sprites/mining_trucks/unitised_mining_truck_red.pcx 290 10 01 22 30 -9 -11
  // unitised hauler grey
 2415 sprites/mining_trucks/unitised_mining_truck_grey.pcx 34 10 01 24 12 -5 -15
 2416 sprites/mining_trucks/unitised_mining_truck_grey.pcx 66 10 01 22 30 -17 -10
 2417 sprites/mining_trucks/unitised_mining_truck_grey.pcx 98 10 01 16 36 -14 -9
 2418 sprites/mining_trucks/unitised_mining_truck_grey.pcx 146 10 01 22 30 -10 -10
 2419 sprites/mining_trucks/unitised_mining_truck_grey.pcx 178 10 01 24 12 -5 -13
 2420 sprites/mining_trucks/unitised_mining_truck_grey.pcx 210 10 01 22 30 -18 -11
 2421 sprites/mining_trucks/unitised_mining_truck_grey.pcx 242 10 01 16 36 -14 -10
 2422 sprites/mining_trucks/unitised_mining_truck_grey.pcx 290 10 01 22 30 -9 -11
 2423 * 13	 02 01 A1 02 02 00 00 01 00 00 00 01 00
 2424 * 13	 02 01 A2 02 02 00 00 02 00 00 00 02 00
 2425 * 13	 02 01 A3 02 02 00 00 03 00 00 00 03 00
 2426 * 13	 02 01 A4 02 02 00 00 04 00 00 00 04 00
 2427 * 13	 02 01 A5 02 02 00 00 05 00 00 00 05 00
 2428 * 13	 02 01 A6 02 02 00 00 06 00 00 00 06 00
 2429 * 4	 01 01 01 04
 2430 * 1	 00
 2431 * 1	 00
 2432 sprites/mining_trucks/unitised_mining_truck.pcx 370 14 01 12 36 -14 -6
 2433 * 1	 00
 2434 * 9	 02 01 AF 01 01 00 00 00 00
 2435 * 25	 03 01 01 D7 // Action 3 
   06 // number of cargo types
   01 A1 00
   08 A2 00
   0E A3 00
   11 A4 00
   17 A5 00
   FF AF 00 // buy menu sprites
   A6 00 // default sprites
  // --------------------------- end of Dump trucks / Mining Haulers --------------------- //

  // --------------------------- Off-Highway Trucks --------------------- //

  // Cascade Off-Highway Truck  90t		1960-1982		30mph
 2436 * 67	 00 01 19 01 23
    00 \w1-1-1920  // intro date
    02 20     // reliability
    03 19     // vehicle life
    04 19     // class life
    06 00     // climate  !! set to 00 to hide this vehicle until finished
    07 05     // load amount
    08 \b96     // speed in mph * 3.2
    09 50     // running cost factor
    0A 48 4C 00 00 13 28 14 C8        // running cost base
    0E FF     // sprite ID
    0F 00     // capacity
    10 FF     // cargo type 
    11 5D     // cost factor
    12 19     // sound effect
    15 \b24     // speed in mph * 0.8
    16 40 00 00 28     // Bit mask of cargo types available for refitting
    // flips 1D / 1E values: excludes grain, wheat, maize
    17 16     // Callback flags bit mask
    1A 00     // Refit cost, using 25% of the purchase price cost base
    1B 00     // Retire vehicle early, this many years before the end of phase 2
    1C 02     // Miscellaneous vehicle flags
    1D 10 00          // Refittable cargo classes
    1E EF 03          // Non-refittable cargo classes
    1F 72 EC 0A 00    // Long format introduction date
 2437 * 31	 04 01 7F 01 23 "Cascade Off-Highway Truck" 00
 2438 * 4	 01 01 01 08
  // Cascade off-highway truck empty
 2439 sprites/off_highway_trucks/1960_truck_3_axle.pcx 34 10 01 24 12 -5 -18
 2440 sprites/off_highway_trucks/1960_truck_3_axle.pcx 66 10 09 20 26 -17 -8
 2441 sprites/off_highway_trucks/1960_truck_3_axle.pcx 98 10 01 16 36 -10 -10
 2442 sprites/off_highway_trucks/1960_truck_3_axle.pcx 146 10 09 20 26 -11 -9
 2443 sprites/off_highway_trucks/1960_truck_3_axle.pcx 178 10 01 24 12 -5 -16
 2444 sprites/off_highway_trucks/1960_truck_3_axle.pcx 210 10 09 20 26 -16 -9
 2445 sprites/off_highway_trucks/1960_truck_3_axle.pcx 242 10 01 16 36 -18 -10
 2446 sprites/off_highway_trucks/1960_truck_3_axle.pcx 290 10 09 20 26 -8 -11
 2447 * 9	 02 01 A1 01 01 00 00 00 00 //normal action2 defining graphics with no loading/loaded stages
 2448 * 4	 01 01 01 04
 2449 * 1	 00
 2450 * 1	 00
 2451 sprites/off_highway_trucks/1960_truck_3_axle.pcx 242 10 01 16 36 -18 -8
 2452 * 1	 00
 2453 * 14	 02 01 B0 //ID B0
               81 10 00 FF //check byte value of variable 10 (no bit shift, FF andmask)
               01 //check one ranges
               06 80 01 01 //give callback result
               FF FF //otherwise end the callback chain
 2454 * 14	 02 01 B1 //ID B1
               81 0C 00 FF //check byte value of variable 81 (no bit shift, FF andmask)
               01 //check one range
               B0 00 16 16 //go to ID B0 for value 16 (ie. go to the articulated vehicle building instructions)
               A1 00 //otherwise go to ID A1 (ie. apply vehicle graphics)
 2455 * 7	 03   // Action 3
    01  // RV 
    01  // Number of vehicles this action associate graphics with 
    23  // Vehicle ID
    00  // Number of different cargo types to support  
    B1 00   // Action 2 ID above  
// --------------------------- end of Off-Highway Trucks --------------------- //
//!!Warning (97): Set 00 defined by the previous Action 1 (sprite 2448) has not been used.
//!!For feature 1 the following cargoIDs have not been used since their most recent definition:
//!!06 (last defined at sprite 1789)
//!!0C (last defined at sprite 419)
//!!0D (last defined at sprite 420)
//!!0F (last defined at sprite 608)
//!!17 (last defined at sprite 1791)
//!!18 (last defined at sprite 256)
//!!19 (last defined at sprite 257)
//!!26 (last defined at sprite 1900)
//!!2C (last defined at sprite 530)
//!!2D (last defined at sprite 531)
//!!2F (last defined at sprite 685)
//!!37 (last defined at sprite 1902)
