  // -------------- Hufi Foundry Transporter --------------- //
 -1 * 67	 00 01 19 01 C0
    00 \w1-1-1920     // intro date
    02 20             // reliability decay speed decay speed
    03 \b35           // vehicle life
    04 19             // class life
    06 0F             // climate availability - use 0F for all, 00 none (to hide vehicle)
    07 05             // load amount
    08 \b112          // speed in mph * 3.2
    09 50             // running cost factor
    0A 48 4C 00 00    // running cost base
    0E FF             // sprite ID
    0F \b70           // capacity
    10 FF             // cargo type 
    11 5D             // cost factor
    12 19             // sound effect
    13 \b40           // power in 10 hp
    14 \b80           // weight in 1/4 tons
    15 \b28           // speed in mph * 0.8
    16 40 00 00 28    // Bit mask of cargo types available for refitting
    // flips 1D / 1E values: excludes grain, wheat, maize
    17 00             // Callback flags bit mask
    1A 00             // Refit cost, using 25% of the purchase price cost base
    1B 00             // Retire vehicle early, this many years before the end of phase 2
    1C 02             // Miscellaneous vehicle flags
    1D 10 00          // Refittable cargo classes
    1E EF 03          // Non-refittable cargo classes
    1F 93 E4 0A 00    // Long format introduction date
 -1 * 29	 04 01 7F 01 C0 "Hufi Foundry Transporter" 00
 -1 * 4	 01 01 0F 08
  //  empty 
 2160 sprites/pcx/mining_trucks/1960s_dump_truck_2_axle.pcx 34 10 01 24 12 -5 -13
 2161 sprites/pcx/mining_trucks/1960s_dump_truck_2_axle.pcx 66 10 09 20 26 -17 -8
 2162 sprites/pcx/mining_trucks/1960s_dump_truck_2_axle.pcx 98 10 01 16 36 -18 -8
 2163 sprites/pcx/mining_trucks/1960s_dump_truck_2_axle.pcx 146 10 09 20 26 -11 -9
 2164 sprites/pcx/mining_trucks/1960s_dump_truck_2_axle.pcx 178 10 01 24 12 -5 -13
 2165 sprites/pcx/mining_trucks/1960s_dump_truck_2_axle.pcx 210 10 09 20 26 -17 -9
 2166 sprites/pcx/mining_trucks/1960s_dump_truck_2_axle.pcx 242 10 01 16 36 -28 -9
 2167 sprites/pcx/mining_trucks/1960s_dump_truck_2_axle.pcx 290 10 09 20 26 -9 -10
  //  coal partial
 2168 sprites/pcx/mining_trucks/1960s_dump_truck_2_axle.pcx 34 50 01 24 12 -5 -13
 2169 sprites/pcx/mining_trucks/1960s_dump_truck_2_axle.pcx 66 50 09 20 26 -17 -8
 2170 sprites/pcx/mining_trucks/1960s_dump_truck_2_axle.pcx 98 50 01 16 36 -18 -8
 2171 sprites/pcx/mining_trucks/1960s_dump_truck_2_axle.pcx 146 50 09 20 26 -11 -9
 2172 sprites/pcx/mining_trucks/1960s_dump_truck_2_axle.pcx 178 50 01 24 12 -5 -13
 2173 sprites/pcx/mining_trucks/1960s_dump_truck_2_axle.pcx 210 50 09 20 26 -17 -9
 2174 sprites/pcx/mining_trucks/1960s_dump_truck_2_axle.pcx 242 50 01 16 36 -28 -9
 2175 sprites/pcx/mining_trucks/1960s_dump_truck_2_axle.pcx 290 50 09 20 26 -9 -10
    //  coal 
 2176 sprites/pcx/mining_trucks/1960s_dump_truck_2_axle.pcx 34 90 01 24 12 -5 -13
 2177 sprites/pcx/mining_trucks/1960s_dump_truck_2_axle.pcx 66 90 09 20 26 -17 -8
 2178 sprites/pcx/mining_trucks/1960s_dump_truck_2_axle.pcx 98 90 01 16 36 -18 -8
 2179 sprites/pcx/mining_trucks/1960s_dump_truck_2_axle.pcx 146 90 09 20 26 -11 -9
 2180 sprites/pcx/mining_trucks/1960s_dump_truck_2_axle.pcx 178 90 01 24 12 -5 -13
 2181 sprites/pcx/mining_trucks/1960s_dump_truck_2_axle.pcx 210 90 09 20 26 -17 -9
 2182 sprites/pcx/mining_trucks/1960s_dump_truck_2_axle.pcx 242 90 01 16 36 -28 -9
 2183 sprites/pcx/mining_trucks/1960s_dump_truck_2_axle.pcx 290 90 09 20 26 -9 -10
  //  iron partial
 2184 sprites/pcx/mining_trucks/1960s_dump_truck_2_axle.pcx 34 130 01 24 12 -5 -13
 2185 sprites/pcx/mining_trucks/1960s_dump_truck_2_axle.pcx 66 130 09 20 26 -17 -8
 2186 sprites/pcx/mining_trucks/1960s_dump_truck_2_axle.pcx 98 130 01 16 36 -18 -8
 2187 sprites/pcx/mining_trucks/1960s_dump_truck_2_axle.pcx 146 130 09 20 26 -11 -9
 2188 sprites/pcx/mining_trucks/1960s_dump_truck_2_axle.pcx 178 130 01 24 12 -5 -13
 2189 sprites/pcx/mining_trucks/1960s_dump_truck_2_axle.pcx 210 130 09 20 26 -17 -9
 2190 sprites/pcx/mining_trucks/1960s_dump_truck_2_axle.pcx 242 130 01 16 36 -28 -9
 2191 sprites/pcx/mining_trucks/1960s_dump_truck_2_axle.pcx 290 130 09 20 26 -9 -10
  //  iron 
 2192 sprites/pcx/mining_trucks/1960s_dump_truck_2_axle.pcx 34 170 01 24 12 -5 -13
 2193 sprites/pcx/mining_trucks/1960s_dump_truck_2_axle.pcx 66 170 09 20 26 -17 -8
 2194 sprites/pcx/mining_trucks/1960s_dump_truck_2_axle.pcx 98 170 01 16 36 -18 -8
 2195 sprites/pcx/mining_trucks/1960s_dump_truck_2_axle.pcx 146 170 09 20 26 -11 -9
 2196 sprites/pcx/mining_trucks/1960s_dump_truck_2_axle.pcx 178 170 01 24 12 -5 -13
 2197 sprites/pcx/mining_trucks/1960s_dump_truck_2_axle.pcx 210 170 09 20 26 -17 -9
 2198 sprites/pcx/mining_trucks/1960s_dump_truck_2_axle.pcx 242 170 01 16 36 -28 -9
 2199 sprites/pcx/mining_trucks/1960s_dump_truck_2_axle.pcx 290 170 09 20 26 -9 -10
  //  white partial
 2200 sprites/pcx/mining_trucks/1960s_dump_truck_2_axle.pcx 34 210 01 24 12 -5 -13
 2201 sprites/pcx/mining_trucks/1960s_dump_truck_2_axle.pcx 66 210 09 20 26 -17 -8
 2202 sprites/pcx/mining_trucks/1960s_dump_truck_2_axle.pcx 98 210 01 16 36 -18 -8
 2203 sprites/pcx/mining_trucks/1960s_dump_truck_2_axle.pcx 146 210 09 20 26 -11 -9
 2204 sprites/pcx/mining_trucks/1960s_dump_truck_2_axle.pcx 178 210 01 24 12 -5 -13
 2205 sprites/pcx/mining_trucks/1960s_dump_truck_2_axle.pcx 210 210 09 20 26 -17 -9
 2206 sprites/pcx/mining_trucks/1960s_dump_truck_2_axle.pcx 242 210 01 16 36 -28 -9
 2207 sprites/pcx/mining_trucks/1960s_dump_truck_2_axle.pcx 290 210 09 20 26 -9 -10
  //  white 
 2208 sprites/pcx/mining_trucks/1960s_dump_truck_2_axle.pcx 34 250 01 24 12 -5 -13
 2209 sprites/pcx/mining_trucks/1960s_dump_truck_2_axle.pcx 66 250 09 20 26 -17 -8
 2210 sprites/pcx/mining_trucks/1960s_dump_truck_2_axle.pcx 98 250 01 16 36 -18 -8
 2211 sprites/pcx/mining_trucks/1960s_dump_truck_2_axle.pcx 146 250 09 20 26 -11 -9
 2212 sprites/pcx/mining_trucks/1960s_dump_truck_2_axle.pcx 178 250 01 24 12 -5 -13
 2213 sprites/pcx/mining_trucks/1960s_dump_truck_2_axle.pcx 210 250 09 20 26 -17 -9
 2214 sprites/pcx/mining_trucks/1960s_dump_truck_2_axle.pcx 242 250 01 16 36 -28 -9
 2215 sprites/pcx/mining_trucks/1960s_dump_truck_2_axle.pcx 290 250 09 20 26 -9 -10
  //  brown partial
 2216 sprites/pcx/mining_trucks/1960s_dump_truck_2_axle.pcx 34 290 01 24 12 -5 -13
 2217 sprites/pcx/mining_trucks/1960s_dump_truck_2_axle.pcx 66 290 09 20 26 -17 -8
 2218 sprites/pcx/mining_trucks/1960s_dump_truck_2_axle.pcx 98 290 01 16 36 -18 -8
 2219 sprites/pcx/mining_trucks/1960s_dump_truck_2_axle.pcx 146 290 09 20 26 -11 -9
 2220 sprites/pcx/mining_trucks/1960s_dump_truck_2_axle.pcx 178 290 01 24 12 -5 -13
 2221 sprites/pcx/mining_trucks/1960s_dump_truck_2_axle.pcx 290 210 09 20 26 -17 -9
 2222 sprites/pcx/mining_trucks/1960s_dump_truck_2_axle.pcx 242 290 01 16 36 -28 -9
 2223 sprites/pcx/mining_trucks/1960s_dump_truck_2_axle.pcx 290 290 09 20 26 -9 -10
  //  brown 
 2224 sprites/pcx/mining_trucks/1960s_dump_truck_2_axle.pcx 34 330 01 24 12 -5 -13
 2225 sprites/pcx/mining_trucks/1960s_dump_truck_2_axle.pcx 66 330 09 20 26 -17 -8
 2226 sprites/pcx/mining_trucks/1960s_dump_truck_2_axle.pcx 98 330 01 16 36 -18 -8
 2227 sprites/pcx/mining_trucks/1960s_dump_truck_2_axle.pcx 146 330 09 20 26 -11 -9
 2228 sprites/pcx/mining_trucks/1960s_dump_truck_2_axle.pcx 178 330 01 24 12 -5 -13
 2229 sprites/pcx/mining_trucks/1960s_dump_truck_2_axle.pcx 210 330 09 20 26 -17 -9
 2230 sprites/pcx/mining_trucks/1960s_dump_truck_2_axle.pcx 242 330 01 16 36 -28 -9
 2231 sprites/pcx/mining_trucks/1960s_dump_truck_2_axle.pcx 290 330 09 20 26 -9 -10
  //  grey partial
 2232 sprites/pcx/mining_trucks/1960s_dump_truck_2_axle.pcx 34 370 01 24 12 -5 -13
 2233 sprites/pcx/mining_trucks/1960s_dump_truck_2_axle.pcx 66 370 09 20 26 -17 -8
 2234 sprites/pcx/mining_trucks/1960s_dump_truck_2_axle.pcx 98 370 01 16 36 -18 -8
 2235 sprites/pcx/mining_trucks/1960s_dump_truck_2_axle.pcx 146 370 09 20 26 -11 -9
 2236 sprites/pcx/mining_trucks/1960s_dump_truck_2_axle.pcx 178 370 01 24 12 -5 -13
 2237 sprites/pcx/mining_trucks/1960s_dump_truck_2_axle.pcx 210 370 09 20 26 -17 -9
 2238 sprites/pcx/mining_trucks/1960s_dump_truck_2_axle.pcx 242 370 01 16 36 -28 -9
 2239 sprites/pcx/mining_trucks/1960s_dump_truck_2_axle.pcx 290 370 09 20 26 -9 -10
  //  grey
 2240 sprites/pcx/mining_trucks/1960s_dump_truck_2_axle.pcx 34 410 01 24 12 -5 -13
 2241 sprites/pcx/mining_trucks/1960s_dump_truck_2_axle.pcx 66 410 09 20 26 -17 -8
 2242 sprites/pcx/mining_trucks/1960s_dump_truck_2_axle.pcx 98 410 01 16 36 -18 -8
 2243 sprites/pcx/mining_trucks/1960s_dump_truck_2_axle.pcx 146 410 09 20 26 -11 -9
 2244 sprites/pcx/mining_trucks/1960s_dump_truck_2_axle.pcx 178 410 01 24 12 -5 -13
 2245 sprites/pcx/mining_trucks/1960s_dump_truck_2_axle.pcx 210 410 09 20 26 -17 -9
 2246 sprites/pcx/mining_trucks/1960s_dump_truck_2_axle.pcx 242 410 01 16 36 -28 -9
 2247 sprites/pcx/mining_trucks/1960s_dump_truck_2_axle.pcx 290 410 09 20 26 -9 -10
 //  red partial
 2248 sprites/pcx/mining_trucks/1960s_dump_truck_2_axle.pcx 34 450 01 24 12 -5 -13
 2249 sprites/pcx/mining_trucks/1960s_dump_truck_2_axle.pcx 66 450 09 20 26 -17 -8
 2250 sprites/pcx/mining_trucks/1960s_dump_truck_2_axle.pcx 98 450 01 16 36 -18 -8
 2251 sprites/pcx/mining_trucks/1960s_dump_truck_2_axle.pcx 146 450 09 20 26 -11 -9
 2252 sprites/pcx/mining_trucks/1960s_dump_truck_2_axle.pcx 178 450 01 24 12 -5 -13
 2253 sprites/pcx/mining_trucks/1960s_dump_truck_2_axle.pcx 210 450 09 20 26 -17 -9
 2254 sprites/pcx/mining_trucks/1960s_dump_truck_2_axle.pcx 242 450 01 16 36 -28 -9
 2255 sprites/pcx/mining_trucks/1960s_dump_truck_2_axle.pcx 290 450 09 20 26 -9 -10
  //  red
 2256 sprites/pcx/mining_trucks/1960s_dump_truck_2_axle.pcx 34 490 01 24 12 -5 -13
 2257 sprites/pcx/mining_trucks/1960s_dump_truck_2_axle.pcx 66 490 09 20 26 -17 -8
 2258 sprites/pcx/mining_trucks/1960s_dump_truck_2_axle.pcx 98 490 01 16 36 -18 -8
 2259 sprites/pcx/mining_trucks/1960s_dump_truck_2_axle.pcx 146 490 09 20 26 -11 -9
 2260 sprites/pcx/mining_trucks/1960s_dump_truck_2_axle.pcx 178 490 01 24 12 -5 -13
 2261 sprites/pcx/mining_trucks/1960s_dump_truck_2_axle.pcx 210 490 09 20 26 -17 -9
 2262 sprites/pcx/mining_trucks/1960s_dump_truck_2_axle.pcx 242 490 01 16 36 -28 -9
 2263 sprites/pcx/mining_trucks/1960s_dump_truck_2_axle.pcx 290 490 09 20 26 -9 -10
 //  sand partial
 2264 sprites/pcx/mining_trucks/1960s_dump_truck_2_axle.pcx 34 530 01 24 12 -5 -13
 2265 sprites/pcx/mining_trucks/1960s_dump_truck_2_axle.pcx 66 530 09 20 26 -17 -8
 2266 sprites/pcx/mining_trucks/1960s_dump_truck_2_axle.pcx 98 530 01 16 36 -18 -8
 2267 sprites/pcx/mining_trucks/1960s_dump_truck_2_axle.pcx 146 530 09 20 26 -11 -9
 2268 sprites/pcx/mining_trucks/1960s_dump_truck_2_axle.pcx 178 530 01 24 12 -5 -13
 2269 sprites/pcx/mining_trucks/1960s_dump_truck_2_axle.pcx 210 530 09 20 26 -17 -9
 2270 sprites/pcx/mining_trucks/1960s_dump_truck_2_axle.pcx 242 530 01 16 36 -28 -9
 2271 sprites/pcx/mining_trucks/1960s_dump_truck_2_axle.pcx 290 530 09 20 26 -9 -10
  //  sand
 2272 sprites/pcx/mining_trucks/1960s_dump_truck_2_axle.pcx 34 570 01 24 12 -5 -13
 2273 sprites/pcx/mining_trucks/1960s_dump_truck_2_axle.pcx 66 570 09 20 26 -17 -8
 2274 sprites/pcx/mining_trucks/1960s_dump_truck_2_axle.pcx 98 570 01 16 36 -18 -8
 2275 sprites/pcx/mining_trucks/1960s_dump_truck_2_axle.pcx 146 570 09 20 26 -11 -9
 2276 sprites/pcx/mining_trucks/1960s_dump_truck_2_axle.pcx 178 570 01 24 12 -5 -13
 2277 sprites/pcx/mining_trucks/1960s_dump_truck_2_axle.pcx 210 570 09 20 26 -17 -9
 2278 sprites/pcx/mining_trucks/1960s_dump_truck_2_axle.pcx 242 570 01 16 36 -28 -9
 2279 sprites/pcx/mining_trucks/1960s_dump_truck_2_axle.pcx 290 570 09 20 26 -9 -10
 2280 * 17	 02 01 A1 03 03  00 00  01 00  02 00    00 00  01 00  02 00  // coal
 2281 * 17	 02 01 A2 03 03  00 00  03 00  04 00    00 00  03 00  04 00  // iron ore
 2282 * 17	 02 01 A3 03 03  00 00  05 00  06 00    00 00  05 00  06 00  // white
 2283 * 17	 02 01 A4 03 03  00 00  07 00  08 00    00 00  07 00  08 00  // brown
 2284 * 17	 02 01 A5 03 03  00 00  09 00  0A 00    00 00  09 00  0A 00  // grey
 2285 * 17	 02 01 A6 03 03  00 00  0B 00  0C 00    00 00  0B 00  0C 00  // red
 2286 * 17	 02 01 A7 03 03  00 00  0D 00  0E 00    00 00  0D 00  0E 00  // sand
 2287 * 4	 01 01 01 04 // buy menu sprites
 2288 * 1	 00
 2289 * 1	 00
 2290 sprites/pcx/mining_trucks/1960s_dump_truck_2_axle.pcx 370 13 01 12 36 -14 -6
 2291 * 1	 00
 2292 * 9	 02 01 AF 01 01  00 00  00 00
 -1 * 28	 03 01 01 C0 // Action 3
    07 // number of cargos
      01 A1 00
      08 A2 00
      0E A3 00
      11 A4 00
      17 A5 00
      19 A7 00
      FF AF 00 // buy menu sprites
    A5 00 // default sprites
  // -------------- end of Hufi Foundry Transporter --------------- //


  // -------------- Kander Foundry Transporter --------------- //
   // Kander rear section 
 -1 * 67	 00 01 1A 01 12 // Vehicle ID has to be less than 128 for articulated trailers
    00 \w1-1-1920   // intro date
    02 20           // reliability decay speed decay speed
    03 \b35         // vehicle life
    04 19           // class life
    06 00           // climate availability - use 0F for all, 00 none (to hide vehicle)
    07 05           // load amount 
    08 80           // speed in mph * 3.2
    09 1E           // running cost factor 
    0A 48 4C 00 00  // running cost base 
    0E FF           // sprite ID
    0F \b120        // capacity
    10 09           // cargo type
    11 34           // cost factor
    12 17           // sound effect
    13 \b0          // power in 10 hp
    14 \b96         // weight in 1/4 tons
    15 \b48         // speed in mph * 0.8
    16 00 02 06 00    // Bit mask of cargo types available for refitting
    // flips 1D / 1E value
    17 16           // callback flags bit mask
    18 00           // coefficient of tractive effort (use 0 for trailers)
    1A 00           // refit cost, using 25% of the purchase price cost base
    1B 00           // retire vehicle early, this many years before the end of phase 2
    1C 02           // miscellaneous vehicle flags
    1D 00 00        // refittable cargo classes
    1E 00 00        // non-refittable cargo classes
    1F 60 B3 0A 00  // long format introduction date  
 -1 * 6	 07 83 01 \7! 02 01 // tropic only
 -1 * 7	 00 01 01 01 06 10 08 // copper ore default
 -1 * 35	 04 01 7F 01 12 "[Kander Trailer]" 00
 -1 * 4	 01 01 07 08
   // empty
 -1 sprites/pcx/foundry_transporters.pcx   34  50   01   24 12    -5 -15
 -1 sprites/pcx/foundry_transporters.pcx   66  50   09   20 26   -15  -9
 -1 sprites/pcx/foundry_transporters.pcx   98  50   01   16 36   -16  -8
 -1 sprites/pcx/foundry_transporters.pcx  146  50   09   20 26    -5  -8
 -1 sprites/pcx/foundry_transporters.pcx  178  50   01   24 12    -4 -12
 -1 sprites/pcx/foundry_transporters.pcx  210  50   09   20 26   -18 -10 
 -1 sprites/pcx/foundry_transporters.pcx  242  50   01   16 36   -22  -9
 -1 sprites/pcx/foundry_transporters.pcx   290  50   09   20 26   -8 -10
   // metal coil loading
 -1 sprites/pcx/foundry_transporters.pcx   34  50   01   24 12    -5 -15
 -1 sprites/pcx/foundry_transporters.pcx   66  50   09   20 26   -15  -9
 -1 sprites/pcx/foundry_transporters.pcx   98  50   01   16 36   -16  -8
 -1 sprites/pcx/foundry_transporters.pcx  146  50   09   20 26    -5  -8
 -1 sprites/pcx/foundry_transporters.pcx  178  50   01   24 12    -4 -12
 -1 sprites/pcx/foundry_transporters.pcx  210  50   09   20 26   -18 -10 
 -1 sprites/pcx/foundry_transporters.pcx  242  50   01   16 36   -22  -9
 -1 sprites/pcx/foundry_transporters.pcx   290  50   09   20 26   -8 -10
   // metal coil loaded
 -1 sprites/pcx/foundry_transporters.pcx   34  50   01   24 12    -5 -15
 -1 sprites/pcx/foundry_transporters.pcx   66  50   09   20 26   -15  -9
 -1 sprites/pcx/foundry_transporters.pcx   98  50   01   16 36   -16  -8
 -1 sprites/pcx/foundry_transporters.pcx  146  50   09   20 26    -5  -8
 -1 sprites/pcx/foundry_transporters.pcx  178  50   01   24 12    -4 -12
 -1 sprites/pcx/foundry_transporters.pcx  210  50   09   20 26   -18 -10 
 -1 sprites/pcx/foundry_transporters.pcx  242  50   01   16 36   -22  -9
 -1 sprites/pcx/foundry_transporters.pcx   290  50   09   20 26   -8 -10
   // metal slab loading
 -1 sprites/pcx/foundry_transporters.pcx   34  50   01   24 12    -5 -15
 -1 sprites/pcx/foundry_transporters.pcx   66  50   09   20 26   -15  -9
 -1 sprites/pcx/foundry_transporters.pcx   98  50   01   16 36   -16  -8
 -1 sprites/pcx/foundry_transporters.pcx  146  50   09   20 26    -5  -8
 -1 sprites/pcx/foundry_transporters.pcx  178  50   01   24 12    -4 -12
 -1 sprites/pcx/foundry_transporters.pcx  210  50   09   20 26   -18 -10 
 -1 sprites/pcx/foundry_transporters.pcx  242  50   01   16 36   -22  -9
 -1 sprites/pcx/foundry_transporters.pcx   290  50   09   20 26   -8 -10
   // metal slab loaded
 -1 sprites/pcx/foundry_transporters.pcx   34  50   01   24 12    -5 -15
 -1 sprites/pcx/foundry_transporters.pcx   66  50   09   20 26   -15  -9
 -1 sprites/pcx/foundry_transporters.pcx   98  50   01   16 36   -16  -8
 -1 sprites/pcx/foundry_transporters.pcx  146  50   09   20 26    -5  -8
 -1 sprites/pcx/foundry_transporters.pcx  178  50   01   24 12    -4 -12
 -1 sprites/pcx/foundry_transporters.pcx  210  50   09   20 26   -18 -10 
 -1 sprites/pcx/foundry_transporters.pcx  242  50   01   16 36   -22  -9
 -1 sprites/pcx/foundry_transporters.pcx   290  50   09   20 26    -8 -10
   // scrap loading
 -1 sprites/pcx/foundry_transporters.pcx   34  50   01   24 12    -5 -15
 -1 sprites/pcx/foundry_transporters.pcx   66  50   09   20 26   -15  -9
 -1 sprites/pcx/foundry_transporters.pcx   98  50   01   16 36   -16  -8
 -1 sprites/pcx/foundry_transporters.pcx  146  50   09   20 26    -5  -8
 -1 sprites/pcx/foundry_transporters.pcx  178  50   01   24 12    -4 -12
 -1 sprites/pcx/foundry_transporters.pcx  210  50   09   20 26   -18 -10 
 -1 sprites/pcx/foundry_transporters.pcx  242  50   01   16 36   -22  -9
 -1 sprites/pcx/foundry_transporters.pcx   290  50   09   20 26   -8 -10
  // scrap loaded
 -1 sprites/pcx/foundry_transporters.pcx   34  50   01   24 12    -5 -15
 -1 sprites/pcx/foundry_transporters.pcx   66  50   09   20 26   -15  -9
 -1 sprites/pcx/foundry_transporters.pcx   98  50   01   16 36   -16  -8
 -1 sprites/pcx/foundry_transporters.pcx  146  50   09   20 26    -5  -8
 -1 sprites/pcx/foundry_transporters.pcx  178  50   01   24 12    -4 -12
 -1 sprites/pcx/foundry_transporters.pcx  210  50   09   20 26   -18 -10 
 -1 sprites/pcx/foundry_transporters.pcx  242  50   01   16 36   -22  -9
 -1 sprites/pcx/foundry_transporters.pcx   290  50   09   20 26   -8 -10
 -1 * 17	 02 01 01
      03 // number loaded states
      03 // number loading states
      00 00  01 00  02 00 // loaded sprites
      00 00  01 00  02 00 // loading sprites     
 -1 * 17	 02 01 02
      03 // number loaded states
      03 // number loading states
      00 00  05 00  06 00 // loaded sprites
      00 00  05 00  06 00 // loading sprites     
 -1 * 26	 02 01 CD // choose belly dump A sprites according to cargo slot (in cargo translation tt)
                 81 47 00 FF // var 47 in format ccccwwtt where I want tt 
                 01 // range
                  02 00 13 13 // format: id | cargo
                 01 00 // default 
 -1 * 7	 03 01 01 12 // Action 3
      00  // Number of different cargo types to support  
      CD 00 // default


  // Kander front section
 -1 * 67	 00 01 1A 01 C1
    00 \w1-1-1920     // intro date
    02 20             // reliability decay speed
    03 \b35           // vehicle life
    04 19             // class life
    06 0F             // climate availability - use 0F for all, 00 none (to hide vehicle)
    07 05             // load amount
    08 \b96           // speed in mph * 3.2
    09 50             // running cost factor
    0A 48 4C 00 00    // running cost base
    0E FF             // sprite ID
    0F 00             // capacity
    10 09             // cargo type 
    11 5D             // cost factor
    12 19             // sound effect
    13 \b60           // power in 10 hp
    14 \b96           // weight in 1/4 tons
    15 \b24           // speed in mph * 0.8
    16 00 02 06 00    // Bit mask of cargo types available for refitting
    // flips 1D / 1E values: excludes grain, wheat, maize
    17 16             // Callback flags bit mask
    18 49             // coefficient of tractive effort (reduced for articulated mining truck with only 1 powered axle)
    1A 00             // Refit cost, using 25% of the purchase price cost base
    1B 00             // Retire vehicle early, this many years before the end of phase 2
    1C 02             // Miscellaneous vehicle flags
    1D 00 00          // Refittable cargo classes
    1E 00 00          // Non-refittable cargo classes
    1F 72 EC 0A 00    // Long format introduction date
 -1 * 35	 04 01 7F 01 C1 "Kander Foundry Transporter" 00
 -1 * 4	 01 01 01 08
  // 
 -1 sprites/pcx/foundry_transporters.pcx   34  10   01   24 12    -5 -12
 -1 sprites/pcx/foundry_transporters.pcx   66  10   09   20 26   -17  -8
 -1 sprites/pcx/foundry_transporters.pcx   98  10   01   16 36   -17  -9
 -1 sprites/pcx/foundry_transporters.pcx  146  10   09   20 26    -8  -9
 -1 sprites/pcx/foundry_transporters.pcx  178  10   01   24 12    -5 -17
 -1 sprites/pcx/foundry_transporters.pcx  210  10   09   20 26   -16  -9
 -1 sprites/pcx/foundry_transporters.pcx  242  10   01   16 36   -16  -9
 -1 sprites/pcx/foundry_transporters.pcx  290  10   09   20 26    -6  -9
 -1 * 9	 02 01 A1 01 01 00 00 00 00
 -1 * 4	 01 01 01 04 // buy menu sprites
 -1 * 1	 00
 -1 * 1	 00
 -1 sprites/pcx/foundry_transporters.pcx 370 10 01 16 36 -14 -9
 -1 * 1	 00
 -1 * 9	 02 01 F1 // action2 buy menu sprites 
      01 // number loading states
      01 // number loaded states
      00 00 // loading sprites
      00 00 // loaded sprites
 -1 * 14	 02 01 B0 //ID B0
               81 10 00 FF //check byte value of variable 10 (no bit shift, FF andmask)
               01 //check one ranges
                 12 80 01 01 //give callback result
               FF FF //otherwise end the callback chain
 -1 * 14	 02 01 B6 // provide correct refit/capacity information in buy menu (credits to DJ Nekkid for solution)
               82 40 10 FF // check vehicle length    
               01 // check one range
                 F1 00 00 00 // if length is 0 use purchase menu sprite
               A1 00 // else go to action 2 to apply graphics
 -1 * 18	 02 01 B1 //ID B1
               81 0C 00 FF //check byte value of variable 81 (no bit shift, FF andmask)
               02 //check one range
                 02 80 11 11 // vehicle length CB 
                 B0 00 16 16 // articulated vehicle building instructions
               B6 00 //otherwise go to next action 2 ID 
 -1 * 7	 03 01 01 C1 // Action 3
    00  // Number of different cargo types to support  
    B1 00   // Action 2 ID above    
  // -------------- end of Kander Foundry Transporter --------------- //


  // -------------- Grindelwald Foundry Transporter --------------- //
 -1 * 67	 00 01 19 01 C3
    00 \w1-1-1920   // intro date
    02 20           // reliability decay speed decay speed
    03 \b35         // vehicle life
    04 19           // class life
    06 0F           // climate availability - use 0F for all, 00 none (to hide vehicle)
    07 05           // load amount
    08 \b112        // speed in mph * 3.2
    09 50           // running cost factor
    0A 48 4C 00 00  // running cost base
    0E FF           // sprite ID
    0F \b200        // capacity
    10 FF           // cargo type 
    11 5D           // cost factor
    12 19           // sound effect
    13 \b60         // power in 10 hp
    14 \b140        // weight in 1/4 tons
    15 \b28         // speed in mph * 0.8
    16 40 00 00 28  // Bit mask of cargo types available for refitting
    // flips 1D / 1E values: excludes grain, wheat, maize
    17 00           // Callback flags bit mask
    1A 00           // Refit cost, using 25% of the purchase price cost base
    1B 00           // Retire vehicle early, this many years before the end of phase 2
    1C 02           // Miscellaneous vehicle flags
    1D 10 00        // Refittable cargo classes
    1E EF 03        // Non-refittable cargo classes
    1F 72 EC 0A 00  // Long format introduction date
 -1 * 28	 04 01 7F 01 C3 "Grindelwald Foundry Transporter" 00
 -1 * 4	 01 01 0F 08
  // empty
 2297 sprites/pcx/mining_trucks/1960s_dump_truck_3_axle.pcx 34 10 01 24 12 -5 -13
 2298 sprites/pcx/mining_trucks/1960s_dump_truck_3_axle.pcx 66 10 09 20 26 -17 -8
 2299 sprites/pcx/mining_trucks/1960s_dump_truck_3_axle.pcx 98 10 01 16 36 -18 -8
 2300 sprites/pcx/mining_trucks/1960s_dump_truck_3_axle.pcx 146 10 09 20 26 -11 -9
 2301 sprites/pcx/mining_trucks/1960s_dump_truck_3_axle.pcx 178 10 01 24 12 -5 -13
 2302 sprites/pcx/mining_trucks/1960s_dump_truck_3_axle.pcx 210 10 09 20 26 -16 -9
 2303 sprites/pcx/mining_trucks/1960s_dump_truck_3_axle.pcx 242 10 01 16 36 -22 -9
 2304 sprites/pcx/mining_trucks/1960s_dump_truck_3_axle.pcx 290 10 09 20 26 -8 -11
  // coal partial
 2305 sprites/pcx/mining_trucks/1960s_dump_truck_3_axle.pcx 34 50 01 24 12 -5 -13
 2306 sprites/pcx/mining_trucks/1960s_dump_truck_3_axle.pcx 66 50 09 20 26 -17 -8
 2307 sprites/pcx/mining_trucks/1960s_dump_truck_3_axle.pcx 98 50 01 16 36 -18 -8
 2308 sprites/pcx/mining_trucks/1960s_dump_truck_3_axle.pcx 146 50 09 20 26 -11 -9
 2309 sprites/pcx/mining_trucks/1960s_dump_truck_3_axle.pcx 178 50 01 24 12 -5 -13
 2310 sprites/pcx/mining_trucks/1960s_dump_truck_3_axle.pcx 210 50 09 20 26 -16 -9
 2311 sprites/pcx/mining_trucks/1960s_dump_truck_3_axle.pcx 242 50 01 16 36 -22 -9
 2312 sprites/pcx/mining_trucks/1960s_dump_truck_3_axle.pcx 290 50 09 20 26 -8 -11
  // coal
 2313 sprites/pcx/mining_trucks/1960s_dump_truck_3_axle.pcx 34 90 01 24 12 -5 -13
 2314 sprites/pcx/mining_trucks/1960s_dump_truck_3_axle.pcx 66 90 09 20 26 -17 -8
 2315 sprites/pcx/mining_trucks/1960s_dump_truck_3_axle.pcx 98 90 01 16 36 -18 -8
 2316 sprites/pcx/mining_trucks/1960s_dump_truck_3_axle.pcx 146 90 09 20 26 -11 -9
 2317 sprites/pcx/mining_trucks/1960s_dump_truck_3_axle.pcx 178 90 01 24 12 -5 -13
 2318 sprites/pcx/mining_trucks/1960s_dump_truck_3_axle.pcx 210 90 09 20 26 -16 -9
 2319 sprites/pcx/mining_trucks/1960s_dump_truck_3_axle.pcx 242 90 01 16 36 -22 -9
 2320 sprites/pcx/mining_trucks/1960s_dump_truck_3_axle.pcx 290 90 09 20 26 -8 -11
  // iron partial
 2321 sprites/pcx/mining_trucks/1960s_dump_truck_3_axle.pcx 34 130 01 24 12 -5 -13
 2322 sprites/pcx/mining_trucks/1960s_dump_truck_3_axle.pcx 66 130 09 20 26 -17 -8
 2323 sprites/pcx/mining_trucks/1960s_dump_truck_3_axle.pcx 98 130 01 16 36 -18 -8
 2324 sprites/pcx/mining_trucks/1960s_dump_truck_3_axle.pcx 146 130 09 20 26 -11 -9
 2325 sprites/pcx/mining_trucks/1960s_dump_truck_3_axle.pcx 178 130 01 24 12 -5 -13
 2326 sprites/pcx/mining_trucks/1960s_dump_truck_3_axle.pcx 210 130 09 20 26 -16 -9
 2327 sprites/pcx/mining_trucks/1960s_dump_truck_3_axle.pcx 242 130 01 16 36 -22 -9
 2328 sprites/pcx/mining_trucks/1960s_dump_truck_3_axle.pcx 290 130 09 20 26 -8 -11
  // iron
 2329 sprites/pcx/mining_trucks/1960s_dump_truck_3_axle.pcx 34 170 01 24 12 -5 -13
 2330 sprites/pcx/mining_trucks/1960s_dump_truck_3_axle.pcx 66 170 09 20 26 -17 -8
 2331 sprites/pcx/mining_trucks/1960s_dump_truck_3_axle.pcx 98 170 01 16 36 -18 -8
 2332 sprites/pcx/mining_trucks/1960s_dump_truck_3_axle.pcx 146 170 09 20 26 -11 -9
 2333 sprites/pcx/mining_trucks/1960s_dump_truck_3_axle.pcx 178 170 01 24 12 -5 -13
 2334 sprites/pcx/mining_trucks/1960s_dump_truck_3_axle.pcx 210 170 09 20 26 -16 -9
 2335 sprites/pcx/mining_trucks/1960s_dump_truck_3_axle.pcx 242 170 01 16 36 -22 -9
 2336 sprites/pcx/mining_trucks/1960s_dump_truck_3_axle.pcx 290 170 09 20 26 -8 -11
  // white partial
 2337 sprites/pcx/mining_trucks/1960s_dump_truck_3_axle.pcx 34 210 01 24 12 -5 -13
 2338 sprites/pcx/mining_trucks/1960s_dump_truck_3_axle.pcx 66 210 09 20 26 -17 -8
 2339 sprites/pcx/mining_trucks/1960s_dump_truck_3_axle.pcx 98 210 01 16 36 -18 -8
 2340 sprites/pcx/mining_trucks/1960s_dump_truck_3_axle.pcx 146 210 09 20 26 -11 -9
 2341 sprites/pcx/mining_trucks/1960s_dump_truck_3_axle.pcx 178 210 01 24 12 -5 -13
 2342 sprites/pcx/mining_trucks/1960s_dump_truck_3_axle.pcx 210 210 09 20 26 -16 -9
 2343 sprites/pcx/mining_trucks/1960s_dump_truck_3_axle.pcx 242 210 01 16 36 -22 -9
 2344 sprites/pcx/mining_trucks/1960s_dump_truck_3_axle.pcx 290 210 09 20 26 -8 -11
  // white
 2345 sprites/pcx/mining_trucks/1960s_dump_truck_3_axle.pcx 34 250 01 24 12 -5 -13
 2346 sprites/pcx/mining_trucks/1960s_dump_truck_3_axle.pcx 66 250 09 20 26 -17 -8
 2347 sprites/pcx/mining_trucks/1960s_dump_truck_3_axle.pcx 98 250 01 16 36 -18 -8
 2348 sprites/pcx/mining_trucks/1960s_dump_truck_3_axle.pcx 146 250 09 20 26 -11 -9
 2349 sprites/pcx/mining_trucks/1960s_dump_truck_3_axle.pcx 178 250 01 24 12 -5 -13
 2350 sprites/pcx/mining_trucks/1960s_dump_truck_3_axle.pcx 210 250 09 20 26 -16 -9
 2351 sprites/pcx/mining_trucks/1960s_dump_truck_3_axle.pcx 242 250 01 16 36 -22 -9
 2352 sprites/pcx/mining_trucks/1960s_dump_truck_3_axle.pcx 290 250 09 20 26 -8 -11
  // brown partial
 2353 sprites/pcx/mining_trucks/1960s_dump_truck_3_axle.pcx 34 290 01 24 12 -5 -13
 2354 sprites/pcx/mining_trucks/1960s_dump_truck_3_axle.pcx 66 290 09 20 26 -17 -8
 2355 sprites/pcx/mining_trucks/1960s_dump_truck_3_axle.pcx 98 290 01 16 36 -18 -8
 2356 sprites/pcx/mining_trucks/1960s_dump_truck_3_axle.pcx 146 290 09 20 26 -11 -9
 2357 sprites/pcx/mining_trucks/1960s_dump_truck_3_axle.pcx 178 290 01 24 12 -5 -13
 2358 sprites/pcx/mining_trucks/1960s_dump_truck_3_axle.pcx 210 290 09 20 26 -16 -9
 2359 sprites/pcx/mining_trucks/1960s_dump_truck_3_axle.pcx 242 290 01 16 36 -22 -9
 2360 sprites/pcx/mining_trucks/1960s_dump_truck_3_axle.pcx 290 290 09 20 26 -8 -11
  // brown
 2361 sprites/pcx/mining_trucks/1960s_dump_truck_3_axle.pcx 34 330 01 24 12 -5 -13
 2362 sprites/pcx/mining_trucks/1960s_dump_truck_3_axle.pcx 66 330 09 20 26 -17 -8
 2363 sprites/pcx/mining_trucks/1960s_dump_truck_3_axle.pcx 98 330 01 16 36 -18 -8
 2364 sprites/pcx/mining_trucks/1960s_dump_truck_3_axle.pcx 146 330 09 20 26 -11 -9
 2365 sprites/pcx/mining_trucks/1960s_dump_truck_3_axle.pcx 178 330 01 24 12 -5 -13
 2366 sprites/pcx/mining_trucks/1960s_dump_truck_3_axle.pcx 210 330 09 20 26 -16 -9
 2367 sprites/pcx/mining_trucks/1960s_dump_truck_3_axle.pcx 242 330 01 16 36 -22 -9
 2368 sprites/pcx/mining_trucks/1960s_dump_truck_3_axle.pcx 290 330 09 20 26 -8 -11
  // grey partial
 2369 sprites/pcx/mining_trucks/1960s_dump_truck_3_axle.pcx 34 370 01 24 12 -5 -13
 2370 sprites/pcx/mining_trucks/1960s_dump_truck_3_axle.pcx 66 370 09 20 26 -17 -8
 2371 sprites/pcx/mining_trucks/1960s_dump_truck_3_axle.pcx 98 370 01 16 36 -18 -8
 2372 sprites/pcx/mining_trucks/1960s_dump_truck_3_axle.pcx 146 370 09 20 26 -11 -9
 2373 sprites/pcx/mining_trucks/1960s_dump_truck_3_axle.pcx 178 370 01 24 12 -5 -13
 2374 sprites/pcx/mining_trucks/1960s_dump_truck_3_axle.pcx 210 370 09 20 26 -16 -9
 2375 sprites/pcx/mining_trucks/1960s_dump_truck_3_axle.pcx 242 370 01 16 36 -22 -9
 2376 sprites/pcx/mining_trucks/1960s_dump_truck_3_axle.pcx 290 370 09 20 26 -8 -11
  // grey
 2377 sprites/pcx/mining_trucks/1960s_dump_truck_3_axle.pcx 34 410 01 24 12 -5 -13
 2378 sprites/pcx/mining_trucks/1960s_dump_truck_3_axle.pcx 66 410 09 20 26 -17 -8
 2379 sprites/pcx/mining_trucks/1960s_dump_truck_3_axle.pcx 98 410 01 16 36 -18 -8
 2380 sprites/pcx/mining_trucks/1960s_dump_truck_3_axle.pcx 146 410 09 20 26 -11 -9
 2381 sprites/pcx/mining_trucks/1960s_dump_truck_3_axle.pcx 178 410 01 24 12 -5 -13
 2382 sprites/pcx/mining_trucks/1960s_dump_truck_3_axle.pcx 210 410 09 20 26 -16 -9
 2383 sprites/pcx/mining_trucks/1960s_dump_truck_3_axle.pcx 242 410 01 16 36 -22 -9
 2384 sprites/pcx/mining_trucks/1960s_dump_truck_3_axle.pcx 290 410 09 20 26 -8 -11
  // red partial
 2385 sprites/pcx/mining_trucks/1960s_dump_truck_3_axle.pcx 34 450 01 24 12 -5 -13
 2386 sprites/pcx/mining_trucks/1960s_dump_truck_3_axle.pcx 66 450 09 20 26 -17 -8
 2387 sprites/pcx/mining_trucks/1960s_dump_truck_3_axle.pcx 98 450 01 16 36 -18 -8
 2388 sprites/pcx/mining_trucks/1960s_dump_truck_3_axle.pcx 146 450 09 20 26 -11 -9
 2389 sprites/pcx/mining_trucks/1960s_dump_truck_3_axle.pcx 178 450 01 24 12 -5 -13
 2390 sprites/pcx/mining_trucks/1960s_dump_truck_3_axle.pcx 210 450 09 20 26 -16 -9
 2391 sprites/pcx/mining_trucks/1960s_dump_truck_3_axle.pcx 242 450 01 16 36 -22 -9
 2392 sprites/pcx/mining_trucks/1960s_dump_truck_3_axle.pcx 290 450 09 20 26 -8 -11
  // red
 2393 sprites/pcx/mining_trucks/1960s_dump_truck_3_axle.pcx 34 490 01 24 12 -5 -13
 2394 sprites/pcx/mining_trucks/1960s_dump_truck_3_axle.pcx 66 490 09 20 26 -17 -8
 2395 sprites/pcx/mining_trucks/1960s_dump_truck_3_axle.pcx 98 490 01 16 36 -18 -8
 2396 sprites/pcx/mining_trucks/1960s_dump_truck_3_axle.pcx 146 490 09 20 26 -11 -9
 2397 sprites/pcx/mining_trucks/1960s_dump_truck_3_axle.pcx 178 490 01 24 12 -5 -13
 2398 sprites/pcx/mining_trucks/1960s_dump_truck_3_axle.pcx 210 490 09 20 26 -16 -9
 2399 sprites/pcx/mining_trucks/1960s_dump_truck_3_axle.pcx 242 490 01 16 36 -22 -9
 2400 sprites/pcx/mining_trucks/1960s_dump_truck_3_axle.pcx 290 490 09 20 26 -8 -11
  // sand partial
 2401 sprites/pcx/mining_trucks/1960s_dump_truck_3_axle.pcx 34 530 01 24 12 -5 -13
 2402 sprites/pcx/mining_trucks/1960s_dump_truck_3_axle.pcx 66 530 09 20 26 -17 -8
 2403 sprites/pcx/mining_trucks/1960s_dump_truck_3_axle.pcx 98 530 01 16 36 -18 -8
 2404 sprites/pcx/mining_trucks/1960s_dump_truck_3_axle.pcx 146 530 09 20 26 -11 -9
 2405 sprites/pcx/mining_trucks/1960s_dump_truck_3_axle.pcx 178 530 01 24 12 -5 -13
 2406 sprites/pcx/mining_trucks/1960s_dump_truck_3_axle.pcx 210 530 09 20 26 -16 -9
 2407 sprites/pcx/mining_trucks/1960s_dump_truck_3_axle.pcx 242 530 01 16 36 -22 -9
 2408 sprites/pcx/mining_trucks/1960s_dump_truck_3_axle.pcx 290 530 09 20 26 -8 -11
  // sand
 2409 sprites/pcx/mining_trucks/1960s_dump_truck_3_axle.pcx 34 570 01 24 12 -5 -13
 2410 sprites/pcx/mining_trucks/1960s_dump_truck_3_axle.pcx 66 570 09 20 26 -17 -8
 2411 sprites/pcx/mining_trucks/1960s_dump_truck_3_axle.pcx 98 570 01 16 36 -18 -8
 2412 sprites/pcx/mining_trucks/1960s_dump_truck_3_axle.pcx 146 570 09 20 26 -11 -9
 2413 sprites/pcx/mining_trucks/1960s_dump_truck_3_axle.pcx 178 570 01 24 12 -5 -13
 2414 sprites/pcx/mining_trucks/1960s_dump_truck_3_axle.pcx 210 570 09 20 26 -16 -9
 2415 sprites/pcx/mining_trucks/1960s_dump_truck_3_axle.pcx 242 570 01 16 36 -22 -9
 2416 sprites/pcx/mining_trucks/1960s_dump_truck_3_axle.pcx 290 570 09 20 26 -8 -11
 2417 * 17	 02 01 A1 03 03  00 00  01 00  02 00    00 00  01 00  02 00  // coal
 2418 * 17	 02 01 A2 03 03  00 00  03 00  04 00    00 00  03 00  04 00  // iron ore
 2419 * 17	 02 01 A3 03 03  00 00  05 00  06 00    00 00  05 00  06 00  // white
 2420 * 17	 02 01 A4 03 03  00 00  07 00  08 00    00 00  07 00  08 00  // brown
 2421 * 17	 02 01 A5 03 03  00 00  09 00  0A 00    00 00  09 00  0A 00  // grey
 2422 * 17	 02 01 A6 03 03  00 00  0B 00  0C 00    00 00  0B 00  0C 00  // red
 2423 * 17	 02 01 A7 03 03  00 00  0D 00  0E 00    00 00  0D 00  0E 00  // sand
 2424 * 4	 01 01 01 04 // buy menu sprites
 2425 * 1	 00
 2426 * 1	 00
 2427 sprites/pcx/mining_trucks/1960s_dump_truck_3_axle.pcx 370 13 01 12 36 -14 -6
 2428 * 1	 00
 2429 * 9	 02 01 AF 01 01 00 00 00 00
 -1 * 28	 03 01 01 C3 // Action 3 
    07  // number of cargos
      01 A1 00
      08 A2 00
      0E A3 00
      11 A4 00
      17 A5 00
      19 A7 00
      FF AF 00 // buy menu sprites
    A6 00 // default sprites
  // -------------- end of Grindelwald Foundry Transporter --------------- //