  // -------------- Grindelwald Foundry Transporter --------------- //
 -1 * 67	 00 01 \b25 01 VEH_GRINDELWALD_FOUNDRY_TRANSPORTER
    00 \w1-1-1920     // intro date (min value: 1-1-1920)
    02 20             // reliability decay speed decay speed
    03 \b30           // vehicle life
    04 \b99             // class life
    06 0F             // climate availability - use 0F for all, 00 none (to hide vehicle)
    07 30             // load amount
    08 \b70          // speed in mph * 3.2
    09 50             // running cost factor
    0A 48 4C 00 00    // running cost base
    0E FF             // sprite ID
    0F \b55           // capacity
    10 FF             // cargo type 
    11 5D             // cost factor
    12 19             // sound effect
    13 \b24           // power in 10 hp
    14 \b80           // weight in 1/4 tons
    15 \b18           // speed in mph * 0.8
    16 00 02 30 00    // Bit mask of cargo types available for refitting
    // flips 1D / 1E values: excludes grain, wheat, maize
    17 00             // Callback flags bit mask
    1A 00             // Refit cost, using 25% of the purchase price cost base
    1B 00             // Retire vehicle early, this many years before the end of phase 2
    1C 02             // Miscellaneous vehicle flags 01 = tram, 02 = use 2CC
    1D 00 00          // Refittable cargo classes
    1E 00 00          // Non-refittable cargo classes
    1F \d720160    // Long format introduction date
 -1 * 29	 04 01 7F 01 VEH_GRINDELWALD_FOUNDRY_TRANSPORTER "Grindelwald Foundry Transporter" 00
 -1 * 4	 01 01 07 08
   // empty
 -1 sprites/pcx/foundry_transporters.pcx   34  770   01   24 12    -5 -15
 -1 sprites/pcx/foundry_transporters.pcx   66  770   09   20 26   -15  -9
 -1 sprites/pcx/foundry_transporters.pcx   98  770   01   16 36   -16  -8
 -1 sprites/pcx/foundry_transporters.pcx  146  770   09   20 26    -7  -9
 -1 sprites/pcx/foundry_transporters.pcx  178  770   01   24 12    -4 -12
 -1 sprites/pcx/foundry_transporters.pcx  210  770   09   20 26   -18 -10 
 -1 sprites/pcx/foundry_transporters.pcx  242  770   01   16 36   -22  -9
 -1 sprites/pcx/foundry_transporters.pcx  290  770   09   20 26   -8 -10
   // metal coil loading 1
 -1 sprites/pcx/foundry_transporters.pcx   34  810   01   24 12    -5 -15
 -1 sprites/pcx/foundry_transporters.pcx   66  810   09   20 26   -15  -9
 -1 sprites/pcx/foundry_transporters.pcx   98  810   01   16 36   -16  -8
 -1 sprites/pcx/foundry_transporters.pcx  146  810   09   20 26    -5  -8
 -1 sprites/pcx/foundry_transporters.pcx  178  810   01   24 12    -4 -12
 -1 sprites/pcx/foundry_transporters.pcx  210  810   09   20 26   -18 -10 
 -1 sprites/pcx/foundry_transporters.pcx  242  810   01   16 36   -22  -9
 -1 sprites/pcx/foundry_transporters.pcx  290  810   09   20 26   -8 -10
   // metal coil loading 2
 -1 sprites/pcx/foundry_transporters.pcx   34  850   01   24 12    -5 -15
 -1 sprites/pcx/foundry_transporters.pcx   66  850   09   20 26   -15  -9
 -1 sprites/pcx/foundry_transporters.pcx   98  850   01   16 36   -16  -8
 -1 sprites/pcx/foundry_transporters.pcx  146  850   09   20 26    -5  -8
 -1 sprites/pcx/foundry_transporters.pcx  178  850   01   24 12    -4 -12
 -1 sprites/pcx/foundry_transporters.pcx  210  850   09   20 26   -18 -10 
 -1 sprites/pcx/foundry_transporters.pcx  242  850   01   16 36   -22  -9
 -1 sprites/pcx/foundry_transporters.pcx  290  850   09   20 26   -8 -10
   // metal coil loaded
 -1 sprites/pcx/foundry_transporters.pcx   34  890   01   24 12    -5 -15
 -1 sprites/pcx/foundry_transporters.pcx   66  890   09   20 26   -15  -9
 -1 sprites/pcx/foundry_transporters.pcx   98  890   01   16 36   -16  -8
 -1 sprites/pcx/foundry_transporters.pcx  146  890   09   20 26    -5  -8
 -1 sprites/pcx/foundry_transporters.pcx  178  890   01   24 12    -4 -12
 -1 sprites/pcx/foundry_transporters.pcx  210  890   09   20 26   -18 -10 
 -1 sprites/pcx/foundry_transporters.pcx  242  890   01   16 36   -22  -9
 -1 sprites/pcx/foundry_transporters.pcx  290  890   09   20 26   -8 -10
   // scrap empty
 -1 sprites/pcx/foundry_transporters.pcx   34  930   01   24 12    -5 -15
 -1 sprites/pcx/foundry_transporters.pcx   66  930   09   20 26   -15  -9
 -1 sprites/pcx/foundry_transporters.pcx   98  930   01   16 36   -16  -8
 -1 sprites/pcx/foundry_transporters.pcx  146  930   09   20 26    -5  -8
 -1 sprites/pcx/foundry_transporters.pcx  178  930   01   24 12    -4 -12
 -1 sprites/pcx/foundry_transporters.pcx  210  930   09   20 26   -18 -10 
 -1 sprites/pcx/foundry_transporters.pcx  242  930   01   16 36   -22  -9
 -1 sprites/pcx/foundry_transporters.pcx  290  930   09   20 26   -8 -10
   // scrap loading
 -1 sprites/pcx/foundry_transporters.pcx   34  970   01   24 12    -5 -15
 -1 sprites/pcx/foundry_transporters.pcx   66  970   09   20 26   -15  -9
 -1 sprites/pcx/foundry_transporters.pcx   98  970   01   16 36   -16  -8
 -1 sprites/pcx/foundry_transporters.pcx  146  970   09   20 26    -5  -8
 -1 sprites/pcx/foundry_transporters.pcx  178  970   01   24 12    -4 -12
 -1 sprites/pcx/foundry_transporters.pcx  210  970   09   20 26   -18 -10 
 -1 sprites/pcx/foundry_transporters.pcx  242  970   01   16 36   -22  -9
 -1 sprites/pcx/foundry_transporters.pcx  290  970   09   20 26   -8 -10
  // scrap loaded
 -1 sprites/pcx/foundry_transporters.pcx   34  1010   01   24 12    -5 -15
 -1 sprites/pcx/foundry_transporters.pcx   66  1010   09   20 26   -15  -9
 -1 sprites/pcx/foundry_transporters.pcx   98  1010   01   16 36   -16  -8
 -1 sprites/pcx/foundry_transporters.pcx  146  1010   09   20 26    -5  -8
 -1 sprites/pcx/foundry_transporters.pcx  178  1010   01   24 12    -4 -12
 -1 sprites/pcx/foundry_transporters.pcx  210  1010   09   20 26   -18 -10 
 -1 sprites/pcx/foundry_transporters.pcx  242  1010   01   16 36   -22  -9
 -1 sprites/pcx/foundry_transporters.pcx  290  1010   09   20 26   -8 -10
  -1 * 17	 02 01 01
      04 // number loaded states
      04 // number loading states
      00 00  01 00  02 00  03 00 // loaded sprites
      00 00  01 00  02 00  03 00 // loading sprites     
 -1 * 17	 02 01 02
      03 // number loaded states
      03 // number loading states
      04 00  05 00  06 00 // loaded sprites
      04 00  05 00  06 00 // loading sprites     
 -1 * 7	 03 01 01 VEH_GRINDELWALD_FOUNDRY_TRANSPORTER // Action 3
      01  // Number of different cargo types to support
        15 02 00 
      01 00 // default
  // -------------- end of Grindelwald Foundry Transporter --------------- //