  // -------------- Grindelwald Foundry Transporter --------------- //
 -1 * 67	 00 01 \b25 01 VEH_GRINDELWALD_FOUNDRY_TRANSPORTER
    00 \w1-1-1920     // intro date (min value: 1-1-1920)
    02 20             // reliability decay speed decay speed
    03 \b30           // vehicle life
    04 \b99             // class life
    06 0F             // climate availability - use 0F for all, 00 none (to hide vehicle)
    07 30             // load amount
    08 \b70          // speed in mph * 3.2
    09 50             // running cost factor
    0A 48 4C 00 00    // running cost base
    0E FF             // sprite ID
    0F \b55           // capacity
    10 FF             // cargo type 
    11 5D             // cost factor
    12 19             // sound effect
    13 \b24           // power in 10 hp
    14 \b80           // weight in 1/4 tons
    15 \b18           // speed in mph * 0.8
    16 00 02 30 00    // Bit mask of cargo types available for refitting
    // flips 1D / 1E values: excludes grain, wheat, maize
    17 00             // Callback flags bit mask
    1A 00             // Refit cost, using 25% of the purchase price cost base
    1B 00             // Retire vehicle early, this many years before the end of phase 2
    1C 02             // Miscellaneous vehicle flags 01 = tram, 02 = use 2CC
    1D 00 00          // Refittable cargo classes
    1E 00 00          // Non-refittable cargo classes
    1F \d720160    // Long format introduction date
 -1 * 29	 04 01 7F 01 VEH_GRINDELWALD_FOUNDRY_TRANSPORTER "Grindelwald Foundry Transporter" 00
 -1 * 4	 01 01 07 08
   // empty
 -1 sprites/pcx/foundry_transporters.pcx   34  770   01   24 12    -5 -15
 -1 sprites/pcx/foundry_transporters.pcx   66  770   09   20 26   -15  -9
 -1 sprites/pcx/foundry_transporters.pcx   98  770   01   16 36   -16  -8
 -1 sprites/pcx/foundry_transporters.pcx  146  770   09   20 26    -7  -9
 -1 sprites/pcx/foundry_transporters.pcx  178  770   01   24 12    -4 -12
 -1 sprites/pcx/foundry_transporters.pcx  210  770   09   20 26   -18 -10 
 -1 sprites/pcx/foundry_transporters.pcx  242  770   01   16 36   -22  -9
 -1 sprites/pcx/foundry_transporters.pcx  290  770   09   20 26   -8 -10
   // metal coil loading 1
 -1 sprites/pcx/foundry_transporters.pcx   34  810   01   24 12    -5 -15
 -1 sprites/pcx/foundry_transporters.pcx   66  810   09   20 26   -15  -9
 -1 sprites/pcx/foundry_transporters.pcx   98  810   01   16 36   -16  -8
 -1 sprites/pcx/foundry_transporters.pcx  146  810   09   20 26    -5  -8
 -1 sprites/pcx/foundry_transporters.pcx  178  810   01   24 12    -4 -12
 -1 sprites/pcx/foundry_transporters.pcx  210  810   09   20 26   -18 -10 
 -1 sprites/pcx/foundry_transporters.pcx  242  810   01   16 36   -22  -9
 -1 sprites/pcx/foundry_transporters.pcx  290  810   09   20 26   -8 -10
   // metal coil loading 2
 -1 sprites/pcx/foundry_transporters.pcx   34  850   01   24 12    -5 -15
 -1 sprites/pcx/foundry_transporters.pcx   66  850   09   20 26   -15  -9
 -1 sprites/pcx/foundry_transporters.pcx   98  850   01   16 36   -16  -8
 -1 sprites/pcx/foundry_transporters.pcx  146  850   09   20 26    -5  -8
 -1 sprites/pcx/foundry_transporters.pcx  178  850   01   24 12    -4 -12
 -1 sprites/pcx/foundry_transporters.pcx  210  850   09   20 26   -18 -10 
 -1 sprites/pcx/foundry_transporters.pcx  242  850   01   16 36   -22  -9
 -1 sprites/pcx/foundry_transporters.pcx  290  850   09   20 26   -8 -10
   // metal coil loaded
 -1 sprites/pcx/foundry_transporters.pcx   34  890   01   24 12    -5 -15
 -1 sprites/pcx/foundry_transporters.pcx   66  890   09   20 26   -15  -9
 -1 sprites/pcx/foundry_transporters.pcx   98  890   01   16 36   -16  -8
 -1 sprites/pcx/foundry_transporters.pcx  146  890   09   20 26    -5  -8
 -1 sprites/pcx/foundry_transporters.pcx  178  890   01   24 12    -4 -12
 -1 sprites/pcx/foundry_transporters.pcx  210  890   09   20 26   -18 -10 
 -1 sprites/pcx/foundry_transporters.pcx  242  890   01   16 36   -22  -9
 -1 sprites/pcx/foundry_transporters.pcx  290  890   09   20 26   -8 -10
   // scrap empty
 -1 sprites/pcx/foundry_transporters.pcx   34  930   01   24 12    -5 -15
 -1 sprites/pcx/foundry_transporters.pcx   66  930   09   20 26   -15  -9
 -1 sprites/pcx/foundry_transporters.pcx   98  930   01   16 36   -16  -8
 -1 sprites/pcx/foundry_transporters.pcx  146  930   09   20 26    -5  -8
 -1 sprites/pcx/foundry_transporters.pcx  178  930   01   24 12    -4 -12
 -1 sprites/pcx/foundry_transporters.pcx  210  930   09   20 26   -18 -10 
 -1 sprites/pcx/foundry_transporters.pcx  242  930   01   16 36   -22  -9
 -1 sprites/pcx/foundry_transporters.pcx  290  930   09   20 26   -8 -10
   // scrap loading
 -1 sprites/pcx/foundry_transporters.pcx   34  970   01   24 12    -5 -15
 -1 sprites/pcx/foundry_transporters.pcx   66  970   09   20 26   -15  -9
 -1 sprites/pcx/foundry_transporters.pcx   98  970   01   16 36   -16  -8
 -1 sprites/pcx/foundry_transporters.pcx  146  970   09   20 26    -5  -8
 -1 sprites/pcx/foundry_transporters.pcx  178  970   01   24 12    -4 -12
 -1 sprites/pcx/foundry_transporters.pcx  210  970   09   20 26   -18 -10 
 -1 sprites/pcx/foundry_transporters.pcx  242  970   01   16 36   -22  -9
 -1 sprites/pcx/foundry_transporters.pcx  290  970   09   20 26   -8 -10
  // scrap loaded
 -1 sprites/pcx/foundry_transporters.pcx   34  1010   01   24 12    -5 -15
 -1 sprites/pcx/foundry_transporters.pcx   66  1010   09   20 26   -15  -9
 -1 sprites/pcx/foundry_transporters.pcx   98  1010   01   16 36   -16  -8
 -1 sprites/pcx/foundry_transporters.pcx  146  1010   09   20 26    -5  -8
 -1 sprites/pcx/foundry_transporters.pcx  178  1010   01   24 12    -4 -12
 -1 sprites/pcx/foundry_transporters.pcx  210  1010   09   20 26   -18 -10 
 -1 sprites/pcx/foundry_transporters.pcx  242  1010   01   16 36   -22  -9
 -1 sprites/pcx/foundry_transporters.pcx  290  1010   09   20 26   -8 -10
  -1 * 17	 02 01 01
      04 // number loaded states
      04 // number loading states
      00 00  01 00  02 00  03 00 // loaded sprites
      00 00  01 00  02 00  03 00 // loading sprites     
 -1 * 17	 02 01 02
      03 // number loaded states
      03 // number loading states
      04 00  05 00  06 00 // loaded sprites
      04 00  05 00  06 00 // loading sprites     
 -1 * 7	 03 01 01 VEH_GRINDELWALD_FOUNDRY_TRANSPORTER // Action 3
      01  // Number of different cargo types to support
        15 02 00 
      01 00 // default
  // -------------- end of Grindelwald Foundry Transporter --------------- //


  // -------------- Kander Foundry Transporter --------------- //
   // Kander rear section 
 -1 * 67	 00 01 \b26 01 VEH_KANDER_FOUNDRY_TRANSPORTER_2 // Vehicle ID has to be less than 128 for articulated trailers
    00 \w1-1-1920   // intro date (min value: 1-1-1920)
    02 20           // reliability decay speed decay speed
    03 \b35         // vehicle life
    04 \b99           // class life
    06 00           // climate availability - use 0F for all, 00 none (to hide vehicle)
    07 30           // load amount 
    08 80           // speed in mph * 3.2
    09 1E           // running cost factor 
    0A 48 4C 00 00  // running cost base 
    0E FF           // sprite ID
    0F \b95        // capacity
    10 09           // cargo type
    11 34           // cost factor
    12 17           // sound effect
    13 \b0          // power in 10 hp
    14 \b96         // weight in 1/4 tons
    15 \b48         // speed in mph * 0.8
    16 00 02 30 00    // Bit mask of cargo types available for refitting
    // flips 1D / 1E value
    17 16           // callback flags bit mask
    18 00           // coefficient of tractive effort (use 0 for trailers)
    1A 00           // refit cost, using 25% of the purchase price cost base
    1B 00           // retire vehicle early, this many years before the end of phase 2
    1C 02           // Miscellaneous vehicle flags 01 = tram, 02 = use 2CC
    1D 00 00        // refittable cargo classes
    1E 00 00        // non-refittable cargo classes
    1F 60 B3 0A 00  // long format introduction date  
 -1 * 6	 07 83 01 \7! 02 01 // tropic only
 -1 * 7	 00 01 \b01 01 06 10 08 // copper ore default
 -1 * 35	 04 01 7F 01 VEH_KANDER_FOUNDRY_TRANSPORTER_2 "[Kander Trailer]" 00
 -1 * 4	 01 01 08 08
   // empty
 -1 sprites/pcx/foundry_transporters.pcx   34  50   01   24 12    -5 -15
 -1 sprites/pcx/foundry_transporters.pcx   66  50   09   20 26   -15  -9
 -1 sprites/pcx/foundry_transporters.pcx   98  50   01   16 36   -16  -8
 -1 sprites/pcx/foundry_transporters.pcx  146  50   09   20 26    -7  -9
 -1 sprites/pcx/foundry_transporters.pcx  178  50   01   24 12    -4 -12
 -1 sprites/pcx/foundry_transporters.pcx  210  50   09   20 26   -18 -10 
 -1 sprites/pcx/foundry_transporters.pcx  242  50   01   16 36   -22  -9
 -1 sprites/pcx/foundry_transporters.pcx  290  50   09   20 26   -8 -10
   // metal slab loading 1
 -1 sprites/pcx/foundry_transporters.pcx   34  90   01   24 12    -5 -15
 -1 sprites/pcx/foundry_transporters.pcx   66  90   09   20 26   -15  -9
 -1 sprites/pcx/foundry_transporters.pcx   98  90   01   16 36   -16  -8
 -1 sprites/pcx/foundry_transporters.pcx  146  90   09   20 26    -5  -8
 -1 sprites/pcx/foundry_transporters.pcx  178  90   01   24 12    -4 -12
 -1 sprites/pcx/foundry_transporters.pcx  210  90   09   20 26   -18 -10 
 -1 sprites/pcx/foundry_transporters.pcx  242  90   01   16 36   -22  -9
 -1 sprites/pcx/foundry_transporters.pcx  290  90   09   20 26   -8 -10
   // metal slab loading 2
 -1 sprites/pcx/foundry_transporters.pcx   34  130   01   24 12    -5 -15
 -1 sprites/pcx/foundry_transporters.pcx   66  130   09   20 26   -15  -9
 -1 sprites/pcx/foundry_transporters.pcx   98  130   01   16 36   -16  -8
 -1 sprites/pcx/foundry_transporters.pcx  146  130   09   20 26    -5  -8
 -1 sprites/pcx/foundry_transporters.pcx  178  130   01   24 12    -4 -12
 -1 sprites/pcx/foundry_transporters.pcx  210  130   09   20 26   -18 -10 
 -1 sprites/pcx/foundry_transporters.pcx  242  130   01   16 36   -22  -9
 -1 sprites/pcx/foundry_transporters.pcx  290  130   09   20 26   -8 -10
   // metal slab loading 3
 -1 sprites/pcx/foundry_transporters.pcx   34  170   01   24 12    -5 -15
 -1 sprites/pcx/foundry_transporters.pcx   66  170   09   20 26   -15  -9
 -1 sprites/pcx/foundry_transporters.pcx   98  170   01   16 36   -16  -8
 -1 sprites/pcx/foundry_transporters.pcx  146  170   09   20 26    -5  -8
 -1 sprites/pcx/foundry_transporters.pcx  178  170   01   24 12    -4 -12
 -1 sprites/pcx/foundry_transporters.pcx  210  170   09   20 26   -18 -10 
 -1 sprites/pcx/foundry_transporters.pcx  242  170   01   16 36   -22  -9
 -1 sprites/pcx/foundry_transporters.pcx  290  170   09   20 26   -8 -10
   // metal slab loaded
 -1 sprites/pcx/foundry_transporters.pcx   34  210   01   24 12    -5 -15
 -1 sprites/pcx/foundry_transporters.pcx   66  210   09   20 26   -15  -9
 -1 sprites/pcx/foundry_transporters.pcx   98  210   01   16 36   -16  -8
 -1 sprites/pcx/foundry_transporters.pcx  146  210   09   20 26    -5  -8
 -1 sprites/pcx/foundry_transporters.pcx  178  210   01   24 12    -4 -12
 -1 sprites/pcx/foundry_transporters.pcx  210  210   09   20 26   -18 -10 
 -1 sprites/pcx/foundry_transporters.pcx  242  210   01   16 36   -22  -9
 -1 sprites/pcx/foundry_transporters.pcx  290  210   09   20 26   -8 -10
   // scrap empty
 -1 sprites/pcx/foundry_transporters.pcx   34  250   01   24 12    -5 -15
 -1 sprites/pcx/foundry_transporters.pcx   66  250   09   20 26   -15  -9
 -1 sprites/pcx/foundry_transporters.pcx   98  250   01   16 36   -16  -8
 -1 sprites/pcx/foundry_transporters.pcx  146  250   09   20 26    -5  -8
 -1 sprites/pcx/foundry_transporters.pcx  178  250   01   24 12    -4 -12
 -1 sprites/pcx/foundry_transporters.pcx  210  250   09   20 26   -18 -10 
 -1 sprites/pcx/foundry_transporters.pcx  242  250   01   16 36   -22  -9
 -1 sprites/pcx/foundry_transporters.pcx  290  250   09   20 26   -8 -10
  // scrap loading
 -1 sprites/pcx/foundry_transporters.pcx   34  290   01   24 12    -5 -15
 -1 sprites/pcx/foundry_transporters.pcx   66  290   09   20 26   -15  -9
 -1 sprites/pcx/foundry_transporters.pcx   98  290   01   16 36   -16  -8
 -1 sprites/pcx/foundry_transporters.pcx  146  290   09   20 26    -5  -8
 -1 sprites/pcx/foundry_transporters.pcx  178  290   01   24 12    -4 -12
 -1 sprites/pcx/foundry_transporters.pcx  210  290   09   20 26   -18 -10 
 -1 sprites/pcx/foundry_transporters.pcx  242  290   01   16 36   -22  -9
 -1 sprites/pcx/foundry_transporters.pcx  290  290   09   20 26   -8 -10
   // scrap loaded
 -1 sprites/pcx/foundry_transporters.pcx   34  330   01   24 12    -5 -15
 -1 sprites/pcx/foundry_transporters.pcx   66  330   09   20 26   -15  -9
 -1 sprites/pcx/foundry_transporters.pcx   98  330   01   16 36   -16  -8
 -1 sprites/pcx/foundry_transporters.pcx  146  330   09   20 26    -5  -8
 -1 sprites/pcx/foundry_transporters.pcx  178  330   01   24 12    -4 -12
 -1 sprites/pcx/foundry_transporters.pcx  210  330   09   20 26   -18 -10 
 -1 sprites/pcx/foundry_transporters.pcx  242  330   01   16 36   -22  -9
 -1 sprites/pcx/foundry_transporters.pcx  290  330   09   20 26   -8 -10
  -1 * 17	 02 01 01
      04 // number loaded states
      04 // number loading states
      00 00  01 00  02 00  04 00 // loaded sprites
      00 00  01 00  02 00  03 00 // loading sprites     
 -1 * 17	 02 01 02
      03 // number loaded states
      03 // number loading states
      05 00  06 00  07 00 // loaded sprites
      05 00  06 00  07 00 // loading sprites     
 -1 * 7	 03 01 01 VEH_KANDER_FOUNDRY_TRANSPORTER_2 // Action 3
      01  // Number of different cargo types to support
        15 02 00 
      01 00 // default


  // Kander front section
 -1 * 67	 00 01 \b26 01 VEH_KANDER_FOUNDRY_TRANSPORTER_1
    00 \w1-1-1920     // intro date (min value: 1-1-1920)
    02 20             // reliability decay speed
    03 \b40           // vehicle life
    04 19             // class life
    06 0F             // climate availability - use 0F for all, 00 none (to hide vehicle)
    07 30             // load amount
    08 \b64           // speed in mph * 3.2
    09 50             // running cost factor
    0A 48 4C 00 00    // running cost base
    0E FF             // sprite ID
    0F 00             // capacity
    10 FF             // cargo type 
    11 5D             // cost factor
    12 19             // sound effect
    13 \b55           // power in 10 hp
    14 \b96           // weight in 1/4 tons
    15 \b16           // speed in mph * 0.8
    16 00 02 30 00    // Bit mask of cargo types available for refitting
    // flips 1D / 1E values: excludes grain, wheat, maize
    17 16             // Callback flags bit mask
    18 49             // coefficient of tractive effort (reduced for articulated mining truck with only 1 powered axle)
    1A 00             // Refit cost, using 25% of the purchase price cost base
    1B 00             // Retire vehicle early, this many years before the end of phase 2
    1C 02             // Miscellaneous vehicle flags 01 = tram, 02 = use 2CC
    1D 00 00          // Refittable cargo classes
    1E 00 00          // Non-refittable cargo classes
    1F \d718359    // Long format introduction date
 -1 * 35	 04 01 7F 01 VEH_KANDER_FOUNDRY_TRANSPORTER_1 "Kander Foundry Transporter" 00
 -1 * 4	 01 01 01 08
  // 
 -1 sprites/pcx/foundry_transporters.pcx   34  10   01   24 12    -5 -12
 -1 sprites/pcx/foundry_transporters.pcx   66  10   09   20 26   -17  -8
 -1 sprites/pcx/foundry_transporters.pcx   98  10   01   16 36   -17  -9
 -1 sprites/pcx/foundry_transporters.pcx  146  10   09   20 26    -8  -9
 -1 sprites/pcx/foundry_transporters.pcx  178  10   01   24 12    -5 -17
 -1 sprites/pcx/foundry_transporters.pcx  210  10   09   20 26   -16  -9
 -1 sprites/pcx/foundry_transporters.pcx  242  10   01   16 36   -16  -9
 -1 sprites/pcx/foundry_transporters.pcx  290  10   09   20 26    -6  -9
 -1 * 9	 02 01 A1 01 01 00 00 00 00
 -1 * 4	 01 01 01 04 // buy menu sprites
 -1 * 1	 00
 -1 * 1	 00
 -1 sprites/pcx/foundry_transporters.pcx 370 10 01 16 36 -14 -9
 -1 * 1	 00
 -1 * 9	 02 01 F1 // action2 buy menu sprites 
      01 // number loading states
      01 // number loaded states
      00 00 // loading sprites
      00 00 // loaded sprites
 -1 * 14	 02 01 B0 //ID B0
               81 10 00 FF //check byte value of variable 10 (no bit shift, FF andmask)
               01 //check one ranges
                 12 80 01 01 //give callback result
               FF FF //otherwise end the callback chain
 -1 * 14	 02 01 B6 // provide correct refit/capacity information in buy menu (credits to DJ Nekkid for solution)
               82 40 10 FF // check vehicle length    
               01 // check one range
                 F1 00 00 00 // if length is 0 use purchase menu sprite
               A1 00 // else go to action 2 to apply graphics
 -1 * 18	 02 01 B1 //ID B1
               81 0C 00 FF //check byte value of variable 81 (no bit shift, FF andmask)
               02 //check one range
                 02 80 11 11 // vehicle length CB 
                 B0 00 16 16 // articulated vehicle building instructions
               B6 00 //otherwise go to next action 2 ID 
 -1 * 7	 03 01 01 VEH_KANDER_FOUNDRY_TRANSPORTER_1 // Action 3
    00  // Number of different cargo types to support  
    B1 00   // Action 2 ID above    
  // -------------- end of Kander Foundry Transporter --------------- //