// ----------- Drawbars for Trailers -------------//

   // Drawbar
    2 * 67	 00 01 19 01 05 // Action 0
      00 00 00  // intro date
      02 20     // reliability
      03 19     // vehicle life
      04 23     // class life
      06 00     // climate
      07 05     // load amount
      08 E0     // speed in mph * 3.2
      09 08     // running cost factor
      0A 48 4C 00 00  // running cost base
      0E FF     // sprite ID
      0F 00     // capacity
      10 FF     // cargo type
      11 00     // cost factor
      12 00     // sound effect
      13 \b00   // power in 10 hp
      14 \b00   // weight in 1/4 tons
      15 38     // speed in mph * 0.8
      16 00 00 00 00    // bit mask of cargo types available for refitting
      17 02     // callback flags bit mask
      1A 00     // refit cost, using 25% of the purchase price cost base
      1B 00     // retire vehicle early, this many years before the end of phase 2
      1C 02     // miscellaneous vehicle flags     
      1D FF 03  // refittable cargo classes 
      1E 01 00  // non-refittable cargo classes
      1F 60 B3 0A 00   // long format introduction date     
    3 * 28	 04 01 7F 01 05 "[Drawbar for Trailers]" 00
    4 * 4	 01 01 01 08
    5 sprites/pcx/drawbar.pcx 34 10 01 24 12 -5 -16
    6 sprites/pcx/drawbar.pcx 66 10 09 20 26 -12 -11
    7 sprites/pcx/drawbar.pcx 98 10 01 16 36 -18 -8
    8 sprites/pcx/drawbar.pcx 146 10 09 20 26 -4 -5
    9 sprites/pcx/drawbar.pcx 178 10 01 24 12 -8 -8
   10 sprites/pcx/drawbar.pcx 210 10 09 20 26 -26 -4
   11 sprites/pcx/drawbar.pcx 242 10 01 16 36 -22 -8
   12 sprites/pcx/drawbar.pcx 290 10 09 20 26 -10 -10
   13 * 9	 02 01 BB   01 01   00 00    00 00
   14 * 14	 02 01 AA  // handle callbacks
                 81 0C 00 FF // check variable 0C
                 01 // range
                  05 80 11 11 // vehicle length callback
                 BB 00
   15 * 7	 03 01 01 05 // Action 3
      00  // Number of different cargo types to support  
      AA 00 // default cargo

   // ----------------- end trailer drawbars -------------------//


    // ------------ Medium Trailers ------------------ //

   // Medium Trailers

   16 * 67	 00 01 \b25 01 00
      00 00 00  // intro date
      02 20     // reliability
      03 19     // vehicle life
      04 23     // class life
      06 00     // climate
      07 05     // load amount
      08 E0     // speed in mph * 3.2
      09 08     // running cost factor
      0A 48 4C 00 00    // running cost base
      0E FF     // sprite ID
      0F \b19     // capacity
      10 06     // cargo type
      11 00     // cost factor
      12 00     // sound effect
      13 \b00   // power in 10 hp
      14 \b12   // weight in 1/4 tons
      15 38     // speed in mph * 0.8
      16 00 00 00 00    // bit mask of cargo types available for refitting
      17 30     // callback flags bit mask
      1A 00     // refit cost, using 25% of the purchase price cost base
      1B 00     // retire vehicle early, this many years before the end of phase 2
      1C 02     // miscellaneous vehicle flags 
      1D FF 03      // refittable cargo classes
      1E 01 00      // non-refittable cargo classes
      1F 60 B3 0A 00    // long format introduction date     
   17 * 30	 04 01 7F 01 00 "[Generic Medium Trailer]" 00
// define additional text suffixes
   18 * 28	 04 00 81 02 00 D0
            		" (refit 1)" 00	//
               	" (refit 2)" 00	//
   // Medium Goods Trailer
   19 * 4	 01 01 01 08
   // Medium box trailer
   20 sprites/pcx/standard_trailers/medium_trailer_tandem.pcx 34 570 01 24 12 -3 -10
   21 sprites/pcx/standard_trailers/medium_trailer_tandem.pcx 66 570 01 20 26 -11 -9
   22 sprites/pcx/standard_trailers/medium_trailer_tandem.pcx 98 570 01 16 36 -14 -6
   23 sprites/pcx/standard_trailers/medium_trailer_tandem.pcx 146 570 01 20 26 -9 -7
   24 sprites/pcx/standard_trailers/medium_trailer_tandem.pcx 178 570 01 24 12 -9 -16
   25 sprites/pcx/standard_trailers/medium_trailer_tandem.pcx 210 570 01 20 26 -17 -7
   26 sprites/pcx/standard_trailers/medium_trailer_tandem.pcx 242 570 01 16 36 -30 -8
   27 sprites/pcx/standard_trailers/medium_trailer_tandem.pcx 290 570 01 20 26 -13 -10
   28 * 9	 02 01 05   01 01   00 00    00 00 // box
   // Medium end dump trailer - empty
   29 * 4	 01 01 0D 08
   30 sprites/pcx/standard_trailers/medium_trailer_tandem.pcx 34 50 01 24 12 -3 -10
   31 sprites/pcx/standard_trailers/medium_trailer_tandem.pcx 66 50 09 20 26 -11 -9
   32 sprites/pcx/standard_trailers/medium_trailer_tandem.pcx 98 50 01 16 36 -14 -6
   33 sprites/pcx/standard_trailers/medium_trailer_tandem.pcx 146 50 09 20 26 -9 -7
   34 sprites/pcx/standard_trailers/medium_trailer_tandem.pcx 178 50 01 24 12 -9 -16
   35 sprites/pcx/standard_trailers/medium_trailer_tandem.pcx 210 50 09 20 26 -17 -7
   36 sprites/pcx/standard_trailers/medium_trailer_tandem.pcx 242 50 01 16 36 -30 -8
   37 sprites/pcx/standard_trailers/medium_trailer_tandem.pcx 290 50 09 20 26 -13 -10
   // Medium end dump - iron ore, loading  !! this isn't iron ore??
   38 sprites/pcx/standard_trailers/medium_trailer_tandem.pcx 34 490 01 24 12 -3 -10
   39 sprites/pcx/standard_trailers/medium_trailer_tandem.pcx 66 490 09 20 20 -11 -9
   40 sprites/pcx/standard_trailers/medium_trailer_tandem.pcx 98 490 01 16 36 -14 -6
   41 sprites/pcx/standard_trailers/medium_trailer_tandem.pcx 146 490 09 20 26 -9 -7
   42 sprites/pcx/standard_trailers/medium_trailer_tandem.pcx 178 490 01 24 12 -9 -16
   43 sprites/pcx/standard_trailers/medium_trailer_tandem.pcx 210 490 09 20 26 -17 -7
   44 sprites/pcx/standard_trailers/medium_trailer_tandem.pcx 242 490 01 16 36 -30 -8
   45 sprites/pcx/standard_trailers/medium_trailer_tandem.pcx 290 490 09 20 26 -13 -10
   // Medium end dump - iron ore, loaded  !! this isn't iron ore??
   46 sprites/pcx/standard_trailers/medium_trailer_tandem.pcx 34 530 01 24 12 -3 -10
   47 sprites/pcx/standard_trailers/medium_trailer_tandem.pcx 66 530 09 20 20 -11 -9
   48 sprites/pcx/standard_trailers/medium_trailer_tandem.pcx 98 530 01 16 36 -14 -6
   49 sprites/pcx/standard_trailers/medium_trailer_tandem.pcx 146 530 09 20 26 -9 -7
   50 sprites/pcx/standard_trailers/medium_trailer_tandem.pcx 178 530 01 24 12 -9 -16
   51 sprites/pcx/standard_trailers/medium_trailer_tandem.pcx 210 530 09 20 26 -17 -7
   52 sprites/pcx/standard_trailers/medium_trailer_tandem.pcx 242 530 01 16 36 -30 -8
   53 sprites/pcx/standard_trailers/medium_trailer_tandem.pcx 290 530 09 20 26 -13 -10
   // Medium end dump - coal, loading
   54 sprites/pcx/standard_trailers/medium_trailer_tandem.pcx 34 170 01 24 12 -3 -10
   55 sprites/pcx/standard_trailers/medium_trailer_tandem.pcx 66 170 09 20 26 -11 -9
   56 sprites/pcx/standard_trailers/medium_trailer_tandem.pcx 98 170 01 16 36 -14 -6
   57 sprites/pcx/standard_trailers/medium_trailer_tandem.pcx 146 170 09 20 26 -9 -7
   58 sprites/pcx/standard_trailers/medium_trailer_tandem.pcx 178 170 01 24 12 -9 -16
   59 sprites/pcx/standard_trailers/medium_trailer_tandem.pcx 210 170 09 20 26 -17 -7
   60 sprites/pcx/standard_trailers/medium_trailer_tandem.pcx 242 170 01 16 36 -30 -8
   61 sprites/pcx/standard_trailers/medium_trailer_tandem.pcx 290 170 09 20 26 -13 -10
   // Medium end dump - coal, loaded
   62 sprites/pcx/standard_trailers/medium_trailer_tandem.pcx 34 210 01 24 12 -3 -10
   63 sprites/pcx/standard_trailers/medium_trailer_tandem.pcx 66 210 09 20 26 -11 -9
   64 sprites/pcx/standard_trailers/medium_trailer_tandem.pcx 98 210 01 16 36 -14 -6
   65 sprites/pcx/standard_trailers/medium_trailer_tandem.pcx 146 210 09 20 26 -9 -7
   66 sprites/pcx/standard_trailers/medium_trailer_tandem.pcx 178 210 01 24 12 -9 -16
   67 sprites/pcx/standard_trailers/medium_trailer_tandem.pcx 210 210 09 20 26 -17 -7
   68 sprites/pcx/standard_trailers/medium_trailer_tandem.pcx 242 210 01 16 36 -30 -8
   69 sprites/pcx/standard_trailers/medium_trailer_tandem.pcx 290 210 09 20 26 -13 -10
   // Medium end dump - grain, loading
   70 sprites/pcx/standard_trailers/medium_trailer_tandem.pcx 34 250 01 24 12 -3 -10
   71 sprites/pcx/standard_trailers/medium_trailer_tandem.pcx 66 250 09 20 26 -11 -9
   72 sprites/pcx/standard_trailers/medium_trailer_tandem.pcx 98 250 01 16 36 -14 -6
   73 sprites/pcx/standard_trailers/medium_trailer_tandem.pcx 146 250 09 20 26 -9 -7
   74 sprites/pcx/standard_trailers/medium_trailer_tandem.pcx 178 250 01 24 12 -9 -16
   75 sprites/pcx/standard_trailers/medium_trailer_tandem.pcx 210 250 09 20 26 -17 -7
   76 sprites/pcx/standard_trailers/medium_trailer_tandem.pcx 242 250 01 16 36 -30 -8
   77 sprites/pcx/standard_trailers/medium_trailer_tandem.pcx 290 250 09 20 26 -13 -10
  // Medium end dump - grain, loaded
   78 sprites/pcx/standard_trailers/medium_trailer_tandem.pcx 34 290 01 24 12 -3 -10
   79 sprites/pcx/standard_trailers/medium_trailer_tandem.pcx 66 290 09 20 26 -11 -9
   80 sprites/pcx/standard_trailers/medium_trailer_tandem.pcx 98 290 01 16 36 -14 -6
   81 sprites/pcx/standard_trailers/medium_trailer_tandem.pcx 146 290 09 20 26 -9 -7
   82 sprites/pcx/standard_trailers/medium_trailer_tandem.pcx 178 290 01 24 12 -9 -16
   83 sprites/pcx/standard_trailers/medium_trailer_tandem.pcx 210 290 09 20 26 -17 -7
   84 sprites/pcx/standard_trailers/medium_trailer_tandem.pcx 242 290 01 16 36 -30 -8
   85 sprites/pcx/standard_trailers/medium_trailer_tandem.pcx 290 290 09 20 26 -13 -10
  // Medium end dump - clay, loading
   86 sprites/pcx/standard_trailers/medium_trailer_tandem.pcx 34 410 01 24 12 -3 -10
   87 sprites/pcx/standard_trailers/medium_trailer_tandem.pcx 66 410 09 20 26 -11 -9
   88 sprites/pcx/standard_trailers/medium_trailer_tandem.pcx 98 410 01 16 36 -14 -6
   89 sprites/pcx/standard_trailers/medium_trailer_tandem.pcx 146 410 09 20 26 -9 -7
   90 sprites/pcx/standard_trailers/medium_trailer_tandem.pcx 178 410 01 24 12 -9 -16
   91 sprites/pcx/standard_trailers/medium_trailer_tandem.pcx 210 410 09 20 26 -17 -7
   92 sprites/pcx/standard_trailers/medium_trailer_tandem.pcx 242 410 01 16 36 -30 -8
   93 sprites/pcx/standard_trailers/medium_trailer_tandem.pcx 290 410 09 20 26 -13 -10
  // Medium end dump - clay, loaded
   94 sprites/pcx/standard_trailers/medium_trailer_tandem.pcx 34 450 01 24 12 -3 -10
   95 sprites/pcx/standard_trailers/medium_trailer_tandem.pcx 66 450 09 20 26 -11 -9
   96 sprites/pcx/standard_trailers/medium_trailer_tandem.pcx 98 450 01 16 36 -14 -6
   97 sprites/pcx/standard_trailers/medium_trailer_tandem.pcx 146 450 09 20 26 -9 -7
   98 sprites/pcx/standard_trailers/medium_trailer_tandem.pcx 178 450 01 24 12 -9 -16
   99 sprites/pcx/standard_trailers/medium_trailer_tandem.pcx 210 450 09 20 26 -17 -7
  100 sprites/pcx/standard_trailers/medium_trailer_tandem.pcx 242 450 01 16 36 -30 -8
  101 sprites/pcx/standard_trailers/medium_trailer_tandem.pcx 290 450 09 20 26 -13 -10
  // Medium end dump - copper ore, loading
  102 sprites/pcx/standard_trailers/medium_trailer_tandem.pcx 34 330 01 24 12 -3 -10
  103 sprites/pcx/standard_trailers/medium_trailer_tandem.pcx 66 330 09 20 26 -11 -9
  104 sprites/pcx/standard_trailers/medium_trailer_tandem.pcx 98 330 01 16 36 -14 -6
  105 sprites/pcx/standard_trailers/medium_trailer_tandem.pcx 146 330 09 20 26 -9 -7
  106 sprites/pcx/standard_trailers/medium_trailer_tandem.pcx 178 330 01 24 12 -9 -16
  107 sprites/pcx/standard_trailers/medium_trailer_tandem.pcx 210 330 09 20 26 -17 -7
  108 sprites/pcx/standard_trailers/medium_trailer_tandem.pcx 242 330 01 16 36 -30 -8
  109 sprites/pcx/standard_trailers/medium_trailer_tandem.pcx 290 330 09 20 26 -13 -10
  // Medium end dump - copper ore, loaded
  110 sprites/pcx/standard_trailers/medium_trailer_tandem.pcx 34 370 01 24 12 -3 -10
  111 sprites/pcx/standard_trailers/medium_trailer_tandem.pcx 66 370 09 20 26 -11 -9
  112 sprites/pcx/standard_trailers/medium_trailer_tandem.pcx 98 370 01 16 36 -14 -6
  113 sprites/pcx/standard_trailers/medium_trailer_tandem.pcx 146 370 09 20 26 -9 -7
  114 sprites/pcx/standard_trailers/medium_trailer_tandem.pcx 178 370 01 24 12 -9 -16
  115 sprites/pcx/standard_trailers/medium_trailer_tandem.pcx 210 370 09 20 26 -17 -7
  116 sprites/pcx/standard_trailers/medium_trailer_tandem.pcx 242 370 01 16 36 -30 -8
  117 sprites/pcx/standard_trailers/medium_trailer_tandem.pcx 290 370 09 20 26 -13 -10
  // Medium end dump - gravel, loading
  118 sprites/pcx/standard_trailers/medium_trailer_tandem.pcx 34 90 01 24 12 -3 -10
  119 sprites/pcx/standard_trailers/medium_trailer_tandem.pcx 66 90 09 20 26 -11 -9
  120 sprites/pcx/standard_trailers/medium_trailer_tandem.pcx 98 90 01 16 36 -14 -6
  121 sprites/pcx/standard_trailers/medium_trailer_tandem.pcx 146 90 09 20 26 -9 -7
  122 sprites/pcx/standard_trailers/medium_trailer_tandem.pcx 178 90 01 24 12 -9 -16
  123 sprites/pcx/standard_trailers/medium_trailer_tandem.pcx 210 90 09 20 26 -17 -7
  124 sprites/pcx/standard_trailers/medium_trailer_tandem.pcx 242 90 01 16 36 -30 -8
  125 sprites/pcx/standard_trailers/medium_trailer_tandem.pcx 290 90 09 20 26 -13 -10
  // Medium end dump - gravel, loaded
  126 sprites/pcx/standard_trailers/medium_trailer_tandem.pcx 34 130 01 24 12 -3 -10
  127 sprites/pcx/standard_trailers/medium_trailer_tandem.pcx 66 130 09 20 26 -11 -9
  128 sprites/pcx/standard_trailers/medium_trailer_tandem.pcx 98 130 01 16 36 -14 -6
  129 sprites/pcx/standard_trailers/medium_trailer_tandem.pcx 146 130 09 20 26 -9 -7
  130 sprites/pcx/standard_trailers/medium_trailer_tandem.pcx 178 130 01 24 12 -9 -16
  131 sprites/pcx/standard_trailers/medium_trailer_tandem.pcx 210 130 09 20 26 -17 -7
  132 sprites/pcx/standard_trailers/medium_trailer_tandem.pcx 242 130 01 16 36 -30 -8
  133 sprites/pcx/standard_trailers/medium_trailer_tandem.pcx 290 130 09 20 26 -13 -10
  134 * 17	 02 01 08  03 03    00 00  01 00  02 00    00 00  01 00  02 00 // iron ore
  135 * 17	 02 01 01  03 03    00 00  03 00  04 00    00 00  03 00  04 00 // coal
  136 * 17	 02 01 06  03 03    00 00  05 00  06 00    00 00  05 00  06 00 // grain
  137 * 17	 02 01 0E  03 03    00 00  07 00  08 00    00 00  07 00  08 00 // brown 
  138 * 17	 02 01 17  03 03    00 00  09 00  0A 00    00 00  09 00  0A 00 // red
  139 * 17	 02 01 11  03 03    00 00  0B 00  0C 00    00 00  0B 00  0C 00 // grey
  // Medium flat trailer / (also stake trailer ??)
  140 * 4	 01 01 0C 08
  // Medium flat trailer - empty
  141 sprites/pcx/standard_trailers/medium_trailer_tandem.pcx 34 730 01 24 12 -3 -10
  142 sprites/pcx/standard_trailers/medium_trailer_tandem.pcx 66 730 09 20 26 -11 -9
  143 sprites/pcx/standard_trailers/medium_trailer_tandem.pcx 98 730 01 16 36 -14 -6
  144 sprites/pcx/standard_trailers/medium_trailer_tandem.pcx 146 730 09 20 26 -9 -7
  145 sprites/pcx/standard_trailers/medium_trailer_tandem.pcx 178 730 01 24 12 -9 -16
  146 sprites/pcx/standard_trailers/medium_trailer_tandem.pcx 210 730 09 20 26 -17 -7
  147 sprites/pcx/standard_trailers/medium_trailer_tandem.pcx 242 730 01 16 36 -30 -8
  148 sprites/pcx/standard_trailers/medium_trailer_tandem.pcx 290 730 09 20 26 -13 -10
  // Medium flat trailer - steel, loading  
  149 sprites/pcx/standard_trailers/medium_trailer_tandem.pcx 34 970 01 24 12 -3 -10
  150 sprites/pcx/standard_trailers/medium_trailer_tandem.pcx 66 970 09 20 26 -11 -9
  151 sprites/pcx/standard_trailers/medium_trailer_tandem.pcx 98 970 01 16 36 -14 -6
  152 sprites/pcx/standard_trailers/medium_trailer_tandem.pcx 146 970 09 20 26 -9 -7
  153 sprites/pcx/standard_trailers/medium_trailer_tandem.pcx 178 970 01 24 12 -9 -16
  154 sprites/pcx/standard_trailers/medium_trailer_tandem.pcx 210 970 09 20 26 -17 -7
  155 sprites/pcx/standard_trailers/medium_trailer_tandem.pcx 242 970 01 16 36 -30 -8
  156 sprites/pcx/standard_trailers/medium_trailer_tandem.pcx 290 970 09 20 26 -13 -10
  // Medium flat trailer - steel, loaded  
  157 sprites/pcx/standard_trailers/medium_trailer_tandem.pcx 34 970 01 24 12 -3 -10
  158 sprites/pcx/standard_trailers/medium_trailer_tandem.pcx 66 970 09 20 26 -11 -9
  159 sprites/pcx/standard_trailers/medium_trailer_tandem.pcx 98 970 01 16 36 -14 -6
  160 sprites/pcx/standard_trailers/medium_trailer_tandem.pcx 146 970 09 20 26 -9 -7
  161 sprites/pcx/standard_trailers/medium_trailer_tandem.pcx 178 970 01 24 12 -9 -16
  162 sprites/pcx/standard_trailers/medium_trailer_tandem.pcx 210 970 09 20 26 -17 -7
  163 sprites/pcx/standard_trailers/medium_trailer_tandem.pcx 242 970 01 16 36 -30 -8
  164 sprites/pcx/standard_trailers/medium_trailer_tandem.pcx 290 970 09 20 26 -13 -10
  // Medium flat trailer - paper, loading  
  165 sprites/pcx/standard_trailers/medium_trailer_tandem.pcx 34 1130 01 24 12 -3 -10
  166 sprites/pcx/standard_trailers/medium_trailer_tandem.pcx 66 1130 09 20 26 -11 -9
  167 sprites/pcx/standard_trailers/medium_trailer_tandem.pcx 98 1130 01 16 36 -14 -6
  168 sprites/pcx/standard_trailers/medium_trailer_tandem.pcx 146 1130 09 20 26 -9 -7
  169 sprites/pcx/standard_trailers/medium_trailer_tandem.pcx 178 1130 01 24 12 -9 -16
  170 sprites/pcx/standard_trailers/medium_trailer_tandem.pcx 210 1130 09 20 26 -17 -7
  171 sprites/pcx/standard_trailers/medium_trailer_tandem.pcx 242 1130 01 16 36 -30 -8
  172 sprites/pcx/standard_trailers/medium_trailer_tandem.pcx 290 1130 09 20 26 -13 -10
  // Medium flat trailer - paper, loaded  
  173 sprites/pcx/standard_trailers/medium_trailer_tandem.pcx 34 1130 01 24 12 -3 -10
  174 sprites/pcx/standard_trailers/medium_trailer_tandem.pcx 66 1130 09 20 26 -11 -9
  175 sprites/pcx/standard_trailers/medium_trailer_tandem.pcx 98 1130 01 16 36 -14 -6
  176 sprites/pcx/standard_trailers/medium_trailer_tandem.pcx 146 1130 09 20 26 -9 -7
  177 sprites/pcx/standard_trailers/medium_trailer_tandem.pcx 178 1130 01 24 12 -9 -16
  178 sprites/pcx/standard_trailers/medium_trailer_tandem.pcx 210 1130 09 20 26 -17 -7
  179 sprites/pcx/standard_trailers/medium_trailer_tandem.pcx 242 1130 01 16 36 -30 -8
  180 sprites/pcx/standard_trailers/medium_trailer_tandem.pcx 290 1130 09 20 26 -13 -10
  // Medium stake trailer - empty
  181 sprites/pcx/standard_trailers/medium_trailer_tandem.pcx 34 610 01 24 12 -3 -10
  182 sprites/pcx/standard_trailers/medium_trailer_tandem.pcx 66 610 09 20 26 -11 -9
  183 sprites/pcx/standard_trailers/medium_trailer_tandem.pcx 98 610 01 16 36 -14 -6
  184 sprites/pcx/standard_trailers/medium_trailer_tandem.pcx 146 610 09 20 26 -9 -7
  185 sprites/pcx/standard_trailers/medium_trailer_tandem.pcx 178 610 01 24 12 -9 -16
  186 sprites/pcx/standard_trailers/medium_trailer_tandem.pcx 210 610 09 20 26 -17 -7
  187 sprites/pcx/standard_trailers/medium_trailer_tandem.pcx 242 610 01 16 36 -30 -8
  188 sprites/pcx/standard_trailers/medium_trailer_tandem.pcx 290 610 09 20 26 -13 -10
  // Medium stake trailer - Wood, loading  
  189 sprites/pcx/standard_trailers/medium_trailer_tandem.pcx 34 650 01 24 12 -3 -10
  190 sprites/pcx/standard_trailers/medium_trailer_tandem.pcx 66 650 09 20 26 -11 -9
  191 sprites/pcx/standard_trailers/medium_trailer_tandem.pcx 98 650 01 16 36 -14 -6
  192 sprites/pcx/standard_trailers/medium_trailer_tandem.pcx 146 650 09 20 26 -9 -7
  193 sprites/pcx/standard_trailers/medium_trailer_tandem.pcx 178 650 01 24 12 -9 -16
  194 sprites/pcx/standard_trailers/medium_trailer_tandem.pcx 210 650 09 20 26 -17 -7
  195 sprites/pcx/standard_trailers/medium_trailer_tandem.pcx 242 650 01 16 36 -30 -8
  196 sprites/pcx/standard_trailers/medium_trailer_tandem.pcx 290 650 09 20 26 -13 -10
  // Medium stake trailer - Wood, loaded  
  197 sprites/pcx/standard_trailers/medium_trailer_tandem.pcx 34 690 01 24 12 -3 -10
  198 sprites/pcx/standard_trailers/medium_trailer_tandem.pcx 66 690 09 20 26 -11 -9
  199 sprites/pcx/standard_trailers/medium_trailer_tandem.pcx 98 690 01 16 36 -14 -6
  200 sprites/pcx/standard_trailers/medium_trailer_tandem.pcx 146 690 09 20 26 -9 -7
  201 sprites/pcx/standard_trailers/medium_trailer_tandem.pcx 178 690 01 24 12 -9 -16
  202 sprites/pcx/standard_trailers/medium_trailer_tandem.pcx 210 690 09 20 26 -17 -7
  203 sprites/pcx/standard_trailers/medium_trailer_tandem.pcx 242 690 01 16 36 -30 -8
  204 sprites/pcx/standard_trailers/medium_trailer_tandem.pcx 290 690 09 20 26 -13 -10
 // Medium flat trailer - livestock, loading  
  205 sprites/pcx/standard_trailers/medium_trailer_tandem.pcx 34 810 01 24 12 -3 -10
  206 sprites/pcx/standard_trailers/medium_trailer_tandem.pcx 66 810 09 20 26 -11 -9
  207 sprites/pcx/standard_trailers/medium_trailer_tandem.pcx 98 810 01 16 36 -14 -6
  208 sprites/pcx/standard_trailers/medium_trailer_tandem.pcx 146 810 09 20 26 -9 -7
  209 sprites/pcx/standard_trailers/medium_trailer_tandem.pcx 178 810 01 24 12 -9 -16
  210 sprites/pcx/standard_trailers/medium_trailer_tandem.pcx 210 810 09 20 26 -17 -7
  211 sprites/pcx/standard_trailers/medium_trailer_tandem.pcx 242 810 01 16 36 -30 -8
  212 sprites/pcx/standard_trailers/medium_trailer_tandem.pcx 290 810 09 20 26 -13 -10
 // Medium flat trailer - livestock, loaded
  213 sprites/pcx/standard_trailers/medium_trailer_tandem.pcx 34 810 01 24 12 -3 -10
  214 sprites/pcx/standard_trailers/medium_trailer_tandem.pcx 66 810 09 20 26 -11 -9
  215 sprites/pcx/standard_trailers/medium_trailer_tandem.pcx 98 810 01 16 36 -14 -6
  216 sprites/pcx/standard_trailers/medium_trailer_tandem.pcx 146 810 09 20 26 -9 -7
  217 sprites/pcx/standard_trailers/medium_trailer_tandem.pcx 178 810 01 24 12 -9 -16
  218 sprites/pcx/standard_trailers/medium_trailer_tandem.pcx 210 810 09 20 26 -17 -7
  219 sprites/pcx/standard_trailers/medium_trailer_tandem.pcx 242 810 01 16 36 -30 -8
  220 sprites/pcx/standard_trailers/medium_trailer_tandem.pcx 290 810 09 20 26 -13 -10
 // Medium flat trailer - copper, loading  
  221 sprites/pcx/standard_trailers/medium_trailer_tandem.pcx 34 10 01 24 12 -3 -10
  222 sprites/pcx/standard_trailers/medium_trailer_tandem.pcx 66 10 09 20 26 -11 -9
  223 sprites/pcx/standard_trailers/medium_trailer_tandem.pcx 98 10 01 16 36 -14 -6
  224 sprites/pcx/standard_trailers/medium_trailer_tandem.pcx 146 10 09 20 26 -9 -7
  225 sprites/pcx/standard_trailers/medium_trailer_tandem.pcx 178 10 01 24 12 -9 -16
  226 sprites/pcx/standard_trailers/medium_trailer_tandem.pcx 210 10 09 20 26 -17 -7
  227 sprites/pcx/standard_trailers/medium_trailer_tandem.pcx 242 10 01 16 36 -30 -8
  228 sprites/pcx/standard_trailers/medium_trailer_tandem.pcx 290 10 09 20 26 -13 -10
 // Medium flat trailer - copper, loaded  
  229 sprites/pcx/standard_trailers/medium_trailer_tandem.pcx 34 10 01 24 12 -3 -10
  230 sprites/pcx/standard_trailers/medium_trailer_tandem.pcx 66 10 09 20 26 -11 -9
  231 sprites/pcx/standard_trailers/medium_trailer_tandem.pcx 98 10 01 16 36 -14 -6
  232 sprites/pcx/standard_trailers/medium_trailer_tandem.pcx 146 10 09 20 26 -9 -7
  233 sprites/pcx/standard_trailers/medium_trailer_tandem.pcx 178 10 01 24 12 -9 -16
  234 sprites/pcx/standard_trailers/medium_trailer_tandem.pcx 210 10 09 20 26 -17 -7
  235 sprites/pcx/standard_trailers/medium_trailer_tandem.pcx 242 10 01 16 36 -30 -8
  236 sprites/pcx/standard_trailers/medium_trailer_tandem.pcx 290 10 09 20 26 -13 -10
  237 * 17	 02 01 09  03 03   00 00  01 00  02 00    00 00  01 00  02 00
  238 * 17	 02 01 0B  03 03   00 00  03 00  04 00    00 00  03 00  04 00
  239 * 17	 02 01 07  03 03   05 00  06 00  07 00    05 00  06 00  07 00
  240 * 17	 02 01 04  03 03   00 00  07 00  08 00    00 00  07 00  08 00
  241 * 17	 02 01 18  03 03   00 00  09 00  0A 00    00 00  09 00  0A 00 
  242 * 17	 02 01 19  03 03   00 00  09 00  0B 00    00 00  09 00  0B 00 // copper ? 
  // Medium tank trailer
  243 * 4	 01 01 01 08
  244 sprites/pcx/standard_trailers/medium_trailer_tandem.pcx 34 10 01 24 12 -3 -10
  245 sprites/pcx/standard_trailers/medium_trailer_tandem.pcx 66 10 09 20 26 -11 -9
  246 sprites/pcx/standard_trailers/medium_trailer_tandem.pcx 98 10 01 16 36 -14 -6
  247 sprites/pcx/standard_trailers/medium_trailer_tandem.pcx 146 10 09 20 26 -9 -7
  248 sprites/pcx/standard_trailers/medium_trailer_tandem.pcx 178 10 01 24 12 -9 -16
  249 sprites/pcx/standard_trailers/medium_trailer_tandem.pcx 210 10 09 20 26 -17 -7
  250 sprites/pcx/standard_trailers/medium_trailer_tandem.pcx 242 10 01 16 36 -30 -8
  251 sprites/pcx/standard_trailers/medium_trailer_tandem.pcx 290 10 09 20 26 -13 -10
  252 * 9	 02 01 03   01 01    00 00    00 00
  // Var action 2 ID schema: B = bulk, C = Covered, F = Flat
  263 * 18	 02 01 AC  // text suffixes
                 81 F2 00 FF //
                 02 // range
                  00 80 00 00 // 
                  01 80 01 01 //  
                 FF 80
  // AB, AA contain some code to allow refit to multiple cargos, this is unused until additional sprites are drawn.
  264 * 18	 02 01 AB  // choose sprites according to refit
                 81 F2 00 FF //
                 02 // range
                  05 00 00 00 // 
                  05 00 01 01 // 
                 05 00 // default 
  265 * 14	 02 01 AA  // handle callbacks
                 81 0C 00 FF //
                 01 // range
                  04 80 11 11 // vehicle length CB
                  //AC 00 19 19 // text suffix CB 
                 05 00 // graphics
  266 * 52	 03 01 01 00 // Action 3
    0F // Number of different cargo types to support
    01 01 00 // coal
    03 03 00 // oil
    04 04 00 // livestock
    06 06 00 // grain 
    07 07 00 // wood
    08 08 00 // iron ore
	  09 09 00 // steel
	  0B 0B 00 // paper
	  0E 0E 00 // copper ore
	  0F 03 00 // water
	  10 03 00 // rubber
    19 06 00 // sand (reuses grain)
	  1B 06 00 // wheat
	  1D 06 00 // maize
	  1E 07 00 // tropical wood
	  AA 00 // default (box trailer)

   // ------------ end of Medium Trailers ------------------ //

  // -------------- Bulldozer Trailers --------------- //

  // Bulldozer trailer standard
       // Rough order of business here
       // Bulldozer trailers vary capacity depending on date vehicle is built
       // Can't get CB 36 to do that on build, only on refit (oh so close)
       // So instead define multiple vehicles using the same real sprites
       // Only difference is capacity
       // Lead vehicle chooses different trailers depending on date
       // This is inefficient on source code, also on ID use, but we have 255 IDs to play with so should be ok.
     // NOTE: Don't use IDs > 128 for trailers in articulated consists (lead vehicle ID can be > 128)
  267 * 67	 00 01 19 01 6E
      00 00 00  // intro date
      02 20     // reliability
      03 19     // vehicle life
      04 23     // class life
      06 00     // climate
      07 05     // load amount
      08 E0     // speed in mph * 3.2
      09 08     // running cost factor
      0A 48 4C 00 00  // running cost base
      0E FF     // sprite ID
      0F \b10   // capacity
      10 06     // cargo type
      11 00     // cost factor
      12 00     // sound effect
      13 \b00   // power in 10 hp
      14 \b12   // weight in 1/4 tons
      15 38     // speed in mph * 0.8
      16 00 00 00 00    // bit mask of cargo types available for refitting
      17 30     // callback flags bit mask
      1A 00     // refit cost, using 25% of the purchase price cost base
      1B 00     // retire vehicle early, this many years before the end of phase 2
      1C 02     // miscellaneous vehicle flags 
      1D FF 03  // refittable cargo classes
      1E 01 00  // non-refittable cargo classes
      1F 60 B3 0A 00    // long format introduction date     
  268 * 67	 00 01 19 01 6F
      00 00 00  // intro date
      02 20     // reliability
      03 19     // vehicle life
      04 23     // class life
      06 00     // climate
      07 05     // load amount
      08 E0     // speed in mph * 3.2
      09 08     // running cost factor
      0A 48 4C 00 00    // running cost base
      0E FF     // sprite ID
      0F \b12   // capacity
      10 06     // cargo type
      11 00     // cost factor
      12 00     // sound effect
      13 \b00   // power in 10 hp
      14 \b12   // weight in 1/4 tons
      15 38     // speed in mph * 0.8
      16 00 00 00 00    // bit mask of cargo types available for refitting
      17 30     // callback flags bit mask
      1A 00     // refit cost, using 25% of the purchase price cost base
      1B 00     // retire vehicle early, this many years before the end of phase 2
      1C 02     // miscellaneous vehicle flags 
      1D FF 03  // refittable cargo classes
      1E 01 00  // non-refittable cargo classes
      1F 60 B3 0A 00    // long format introduction date     
  269 * 67	 00 01 19 01 70
      00 00 00  // intro date
      02 20     // reliability
      03 19     // vehicle life
      04 23     // class life
      06 00     // climate
      07 05     // load amount
      08 E0     // speed in mph * 3.2
      09 08     // running cost factor
      0A 48 4C 00 00   // running cost base
      0E FF     // sprite ID
      0F \b14   // capacity
      10 06     // cargo type
      11 00     // cost factor
      12 00     // sound effect
      13 \b00   // power in 10 hp
      14 \b12   // weight in 1/4 tons
      15 38     // speed in mph * 0.8
      16 00 00 00 00    // bit mask of cargo types available for refitting
      17 30     // callback flags bit mask
      1A 00     // refit cost, using 25% of the purchase price cost base
      1B 00     // retire vehicle early, this many years before the end of phase 2
      1C 02     // miscellaneous vehicle flags 
      1D FF 03  // refittable cargo classes
      1E 01 00  // non-refittable cargo classes
      1F 60 B3 0A 00    // long format introduction date     
  270 * 67	 00 01 19 01 71
      00 00 00  // intro date
      02 20     // reliability
      03 19     // vehicle life
      04 23     // class life
      06 00     // climate
      07 05     // load amount
      08 E0     // speed in mph * 3.2
      09 08     // running cost factor
      0A 48 4C 00 00  // running cost base
      0E FF     // sprite ID
      0F \b16   // capacity
      10 06     // cargo type
      11 00     // cost factor
      12 00     // sound effect
      13 \b00   // power in 10 hp
      14 \b12   // weight in 1/4 tons
      15 38     // speed in mph * 0.8
      16 00 00 00 00    // bit mask of cargo types available for refitting
      17 30     // callback flags bit mask
      1A 00     // refit cost, using 25% of the purchase price cost base
      1B 00     // retire vehicle early, this many years before the end of phase 2
      1C 02     // miscellaneous vehicle flags 
      1D FF 03  // refittable cargo classes
      1E 01 00  // non-refittable cargo classes
      1F 60 B3 0A 00    // long format introduction date     
  271 * 67	 00 01 \b25 01 72
      00 00 00  // intro date
      02 20     // reliability
      03 19     // vehicle life
      04 23     // class life
      06 00     // climate
      07 05     // load amount
      08 E0     // speed in mph * 3.2
      09 08     // running cost factor
      0A 48 4C 00 00    // running cost base
      0E FF     // sprite ID
      0F \b19   // capacity
      10 06     // cargo type
      11 00     // cost factor
      12 00     // sound effect
      13 \b00   // power in 10 hp
      14 \b12   // weight in 1/4 tons
      15 38     // speed in mph * 0.8
      16 00 00 00 00    // bit mask of cargo types available for refitting
      17 30     // callback flags bit mask
      1A 00     // refit cost, using 25% of the purchase price cost base
      1B 00     // retire vehicle early, this many years before the end of phase 2
      1C 02     // miscellaneous vehicle flags 
      1D FF 03  // refittable cargo classes
      1E 01 00  // non-refittable cargo classes
      1F 60 B3 0A 00    // long format introduction date     
  272 * 67	 00 01 \b25 01 73
      00 00 00  // intro date
      02 20     // reliability
      03 19     // vehicle life
      04 23     // class life
      06 00     // climate
      07 05     // load amount
      08 E0     // speed in mph * 3.2
      09 08     // running cost factor
      0A 48 4C 00 00    // running cost base
      0E FF     // sprite ID
      0F \b22   // capacity
      10 06     // cargo type
      11 00     // cost factor
      12 00     // sound effect
      13 \b00   // power in 10 hp
      14 \b12   // weight in 1/4 tons
      15 38     // speed in mph * 0.8
      16 00 00 00 00    // bit mask of cargo types available for refitting
      17 30     // callback flags bit mask
      1A 00     // refit cost, using 25% of the purchase price cost base
      1B 00     // retire vehicle early, this many years before the end of phase 2
      1C 02     // miscellaneous vehicle flags 
      1D FF 03  // refittable cargo classes
      1E 01 00  // non-refittable cargo classes
      1F 60 B3 0A 00    // long format introduction date     
  273 * 42	 04 01 7F 01 70 "[Generic Standard bulldozer Trailer]" 00
  // define additional text suffixes
  274 * 33	 04 00 81 02 00 D0
            		" (Wheeled Trailer)" 00	// D000 = "1st class"
               	" (Sled)" 00	// D001 = "2nd class"
  // Action 2 ID schema: 0 / 1 = wheeled trailer, 2 / 3 = sled
   // Standard bulldozer Goods Trailer
  275 * 4	 01 01 01 08
  276 sprites/pcx/standard_trailers/medium_trailer_4_wheel.pcx 34 570 01 24 12 -3 -10
  277 sprites/pcx/standard_trailers/medium_trailer_4_wheel.pcx 66 570 01 20 26 -11 -9
  278 sprites/pcx/standard_trailers/medium_trailer_4_wheel.pcx 98 570 01 16 36 -15 -7
  279 sprites/pcx/standard_trailers/medium_trailer_4_wheel.pcx 146 570 01 20 26 -9 -7
  280 sprites/pcx/standard_trailers/medium_trailer_4_wheel.pcx 178 570 01 24 12 -9 -16
  281 sprites/pcx/standard_trailers/medium_trailer_4_wheel.pcx 210 570 01 20 26 -17 -7
  282 sprites/pcx/standard_trailers/medium_trailer_4_wheel.pcx 242 570 01 16 36 -19 -8
  283 sprites/pcx/standard_trailers/medium_trailer_4_wheel.pcx 290 570 01 20 26 -13 -10
  284 * 9	 02 01 05   01 01   00 00    00 00
   // Standard bulldozer Goods Sled
  285 * 4	 01 01 01 08
  286 sprites/pcx/standard_trailers/medium_sled.pcx 34 570 01 24 12 -3 -10
  287 sprites/pcx/standard_trailers/medium_sled.pcx 66 570 01 20 26 -11 -9
  288 sprites/pcx/standard_trailers/medium_sled.pcx 98 570 01 16 36 -15 -7
  289 sprites/pcx/standard_trailers/medium_sled.pcx 146 570 01 20 26 -9 -7
  290 sprites/pcx/standard_trailers/medium_sled.pcx 178 570 01 24 12 -9 -16
  291 sprites/pcx/standard_trailers/medium_sled.pcx 210 570 01 20 26 -17 -7
  292 sprites/pcx/standard_trailers/medium_sled.pcx 242 570 01 16 36 -19 -8
  293 sprites/pcx/standard_trailers/medium_sled.pcx 290 570 01 20 26 -13 -10
  294 * 9	 02 01 25   01 01   00 00    00 00
   // Standard bulldozer end dump trailer - empty
  295 * 4	 01 01 0D 08
  296 sprites/pcx/standard_trailers/medium_trailer_4_wheel.pcx 34 50 01 24 12 -3 -10
  297 sprites/pcx/standard_trailers/medium_trailer_4_wheel.pcx 66 50 09 20 26 -11 -9
  298 sprites/pcx/standard_trailers/medium_trailer_4_wheel.pcx 98 50 01 16 36 -15 -7
  299 sprites/pcx/standard_trailers/medium_trailer_4_wheel.pcx 146 50 09 20 26 -9 -7
  300 sprites/pcx/standard_trailers/medium_trailer_4_wheel.pcx 178 50 01 24 12 -9 -16
  301 sprites/pcx/standard_trailers/medium_trailer_4_wheel.pcx 210 50 09 20 26 -17 -7
  302 sprites/pcx/standard_trailers/medium_trailer_4_wheel.pcx 242 50 01 16 36 -19 -8
  303 sprites/pcx/standard_trailers/medium_trailer_4_wheel.pcx 290 50 09 20 26 -13 -10
   // Standard bulldozer end dump - iron ore, loading
  304 sprites/pcx/standard_trailers/medium_trailer_4_wheel.pcx 34 490 01 24 12 -3 -10
  305 sprites/pcx/standard_trailers/medium_trailer_4_wheel.pcx 66 490 09 20 20 -11 -9
  306 sprites/pcx/standard_trailers/medium_trailer_4_wheel.pcx 98 490 01 16 36 -15 -7
  307 sprites/pcx/standard_trailers/medium_trailer_4_wheel.pcx 146 490 09 20 26 -9 -7
  308 sprites/pcx/standard_trailers/medium_trailer_4_wheel.pcx 178 490 01 24 12 -9 -16
  309 sprites/pcx/standard_trailers/medium_trailer_4_wheel.pcx 210 490 09 20 26 -17 -7
  310 sprites/pcx/standard_trailers/medium_trailer_4_wheel.pcx 242 490 01 16 36 -19 -8
  311 sprites/pcx/standard_trailers/medium_trailer_4_wheel.pcx 290 490 09 20 26 -13 -10
   // Standard bulldozer end dump - iron ore, loaded
  312 sprites/pcx/standard_trailers/medium_trailer_4_wheel.pcx 34 530 01 24 12 -3 -10
  313 sprites/pcx/standard_trailers/medium_trailer_4_wheel.pcx 66 530 09 20 20 -11 -9
  314 sprites/pcx/standard_trailers/medium_trailer_4_wheel.pcx 98 530 01 16 36 -15 -7
  315 sprites/pcx/standard_trailers/medium_trailer_4_wheel.pcx 146 530 09 20 26 -9 -7
  316 sprites/pcx/standard_trailers/medium_trailer_4_wheel.pcx 178 530 01 24 12 -9 -16
  317 sprites/pcx/standard_trailers/medium_trailer_4_wheel.pcx 210 530 09 20 26 -17 -7
  318 sprites/pcx/standard_trailers/medium_trailer_4_wheel.pcx 242 530 01 16 36 -19 -8
  319 sprites/pcx/standard_trailers/medium_trailer_4_wheel.pcx 290 530 09 20 26 -13 -10
   // Standard bulldozer end dump - coal, loading
  320 sprites/pcx/standard_trailers/medium_trailer_4_wheel.pcx 34 170 01 24 12 -3 -10
  321 sprites/pcx/standard_trailers/medium_trailer_4_wheel.pcx 66 170 09 20 26 -11 -9
  322 sprites/pcx/standard_trailers/medium_trailer_4_wheel.pcx 98 170 01 16 36 -15 -7
  323 sprites/pcx/standard_trailers/medium_trailer_4_wheel.pcx 146 170 09 20 26 -9 -7
  324 sprites/pcx/standard_trailers/medium_trailer_4_wheel.pcx 178 170 01 24 12 -9 -16
  325 sprites/pcx/standard_trailers/medium_trailer_4_wheel.pcx 210 170 09 20 26 -17 -7
  326 sprites/pcx/standard_trailers/medium_trailer_4_wheel.pcx 242 170 01 16 36 -19 -8
  327 sprites/pcx/standard_trailers/medium_trailer_4_wheel.pcx 290 170 09 20 26 -13 -10
   // Standard bulldozer end dump - coal, loaded
  328 sprites/pcx/standard_trailers/medium_trailer_4_wheel.pcx 34 210 01 24 12 -3 -10
  329 sprites/pcx/standard_trailers/medium_trailer_4_wheel.pcx 66 210 09 20 26 -11 -9
  330 sprites/pcx/standard_trailers/medium_trailer_4_wheel.pcx 98 210 01 16 36 -15 -7
  331 sprites/pcx/standard_trailers/medium_trailer_4_wheel.pcx 146 210 09 20 26 -9 -7
  332 sprites/pcx/standard_trailers/medium_trailer_4_wheel.pcx 178 210 01 24 12 -9 -16
  333 sprites/pcx/standard_trailers/medium_trailer_4_wheel.pcx 210 210 09 20 26 -17 -7
  334 sprites/pcx/standard_trailers/medium_trailer_4_wheel.pcx 242 210 01 16 36 -19 -8
  335 sprites/pcx/standard_trailers/medium_trailer_4_wheel.pcx 290 210 09 20 26 -13 -10
   // Standard bulldozer end dump - grain, loading
  336 sprites/pcx/standard_trailers/medium_trailer_4_wheel.pcx 34 250 01 24 12 -3 -10
  337 sprites/pcx/standard_trailers/medium_trailer_4_wheel.pcx 66 250 09 20 26 -11 -9
  338 sprites/pcx/standard_trailers/medium_trailer_4_wheel.pcx 98 250 01 16 36 -15 -7
  339 sprites/pcx/standard_trailers/medium_trailer_4_wheel.pcx 146 250 09 20 26 -9 -7
  340 sprites/pcx/standard_trailers/medium_trailer_4_wheel.pcx 178 250 01 24 12 -9 -16
  341 sprites/pcx/standard_trailers/medium_trailer_4_wheel.pcx 210 250 09 20 26 -17 -7
  342 sprites/pcx/standard_trailers/medium_trailer_4_wheel.pcx 242 250 01 16 36 -19 -8
  343 sprites/pcx/standard_trailers/medium_trailer_4_wheel.pcx 290 250 09 20 26 -13 -10
  // Standard bulldozer end dump - grain, loaded
  344 sprites/pcx/standard_trailers/medium_trailer_4_wheel.pcx 34 290 01 24 12 -3 -10
  345 sprites/pcx/standard_trailers/medium_trailer_4_wheel.pcx 66 290 09 20 26 -11 -9
  346 sprites/pcx/standard_trailers/medium_trailer_4_wheel.pcx 98 290 01 16 36 -15 -7
  347 sprites/pcx/standard_trailers/medium_trailer_4_wheel.pcx 146 290 09 20 26 -9 -7
  348 sprites/pcx/standard_trailers/medium_trailer_4_wheel.pcx 178 290 01 24 12 -9 -16
  349 sprites/pcx/standard_trailers/medium_trailer_4_wheel.pcx 210 290 09 20 26 -17 -7
  350 sprites/pcx/standard_trailers/medium_trailer_4_wheel.pcx 242 290 01 16 36 -19 -8
  351 sprites/pcx/standard_trailers/medium_trailer_4_wheel.pcx 290 290 09 20 26 -13 -10
  // Standard bulldozer end dump - brown, loading
  352 sprites/pcx/standard_trailers/medium_trailer_4_wheel.pcx 34 410 01 24 12 -3 -10
  353 sprites/pcx/standard_trailers/medium_trailer_4_wheel.pcx 66 410 09 20 26 -11 -9
  354 sprites/pcx/standard_trailers/medium_trailer_4_wheel.pcx 98 410 01 16 36 -15 -7
  355 sprites/pcx/standard_trailers/medium_trailer_4_wheel.pcx 146 410 09 20 26 -9 -7
  356 sprites/pcx/standard_trailers/medium_trailer_4_wheel.pcx 178 410 01 24 12 -9 -16
  357 sprites/pcx/standard_trailers/medium_trailer_4_wheel.pcx 210 410 09 20 26 -17 -7
  358 sprites/pcx/standard_trailers/medium_trailer_4_wheel.pcx 242 410 01 16 36 -19 -8
  359 sprites/pcx/standard_trailers/medium_trailer_4_wheel.pcx 290 410 09 20 26 -13 -10
  // Standard bulldozer end dump - brown, loaded
  360 sprites/pcx/standard_trailers/medium_trailer_4_wheel.pcx 34 450 01 24 12 -3 -10
  361 sprites/pcx/standard_trailers/medium_trailer_4_wheel.pcx 66 450 09 20 26 -11 -9
  362 sprites/pcx/standard_trailers/medium_trailer_4_wheel.pcx 98 450 01 16 36 -15 -7
  363 sprites/pcx/standard_trailers/medium_trailer_4_wheel.pcx 146 450 09 20 26 -9 -7
  364 sprites/pcx/standard_trailers/medium_trailer_4_wheel.pcx 178 450 01 24 12 -9 -16
  365 sprites/pcx/standard_trailers/medium_trailer_4_wheel.pcx 210 450 09 20 26 -17 -7
  366 sprites/pcx/standard_trailers/medium_trailer_4_wheel.pcx 242 450 01 16 36 -19 -8
  367 sprites/pcx/standard_trailers/medium_trailer_4_wheel.pcx 290 450 09 20 26 -13 -10
  // Standard bulldozer end dump - red, loading
  368 sprites/pcx/standard_trailers/medium_trailer_4_wheel.pcx 34 370 01 24 12 -3 -10
  369 sprites/pcx/standard_trailers/medium_trailer_4_wheel.pcx 66 370 09 20 26 -11 -9
  370 sprites/pcx/standard_trailers/medium_trailer_4_wheel.pcx 98 370 01 16 36 -15 -7
  371 sprites/pcx/standard_trailers/medium_trailer_4_wheel.pcx 146 370 09 20 26 -9 -7
  372 sprites/pcx/standard_trailers/medium_trailer_4_wheel.pcx 178 370 01 24 12 -9 -16
  373 sprites/pcx/standard_trailers/medium_trailer_4_wheel.pcx 210 370 09 20 26 -17 -7
  374 sprites/pcx/standard_trailers/medium_trailer_4_wheel.pcx 242 370 01 16 36 -19 -8
  375 sprites/pcx/standard_trailers/medium_trailer_4_wheel.pcx 290 370 09 20 26 -13 -10
  // Standard bulldozer end dump - red, loaded
  376 sprites/pcx/standard_trailers/medium_trailer_4_wheel.pcx 34 370 01 24 12 -3 -10
  377 sprites/pcx/standard_trailers/medium_trailer_4_wheel.pcx 66 370 09 20 26 -11 -9
  378 sprites/pcx/standard_trailers/medium_trailer_4_wheel.pcx 98 370 01 16 36 -15 -7
  379 sprites/pcx/standard_trailers/medium_trailer_4_wheel.pcx 146 370 09 20 26 -9 -7
  380 sprites/pcx/standard_trailers/medium_trailer_4_wheel.pcx 178 370 01 24 12 -9 -16
  381 sprites/pcx/standard_trailers/medium_trailer_4_wheel.pcx 210 370 09 20 26 -17 -7
  382 sprites/pcx/standard_trailers/medium_trailer_4_wheel.pcx 242 370 01 16 36 -19 -8
  383 sprites/pcx/standard_trailers/medium_trailer_4_wheel.pcx 290 370 09 20 26 -13 -10
  // Standard bulldozer end dump - grey, loading
  384 sprites/pcx/standard_trailers/medium_trailer_4_wheel.pcx 34 90 01 24 12 -3 -10
  385 sprites/pcx/standard_trailers/medium_trailer_4_wheel.pcx 66 90 09 20 26 -11 -9
  386 sprites/pcx/standard_trailers/medium_trailer_4_wheel.pcx 98 90 01 16 36 -15 -7
  387 sprites/pcx/standard_trailers/medium_trailer_4_wheel.pcx 146 90 09 20 26 -9 -7
  388 sprites/pcx/standard_trailers/medium_trailer_4_wheel.pcx 178 90 01 24 12 -9 -16
  389 sprites/pcx/standard_trailers/medium_trailer_4_wheel.pcx 210 90 09 20 26 -17 -7
  390 sprites/pcx/standard_trailers/medium_trailer_4_wheel.pcx 242 90 01 16 36 -19 -8
  391 sprites/pcx/standard_trailers/medium_trailer_4_wheel.pcx 290 90 09 20 26 -13 -10
  // Standard bulldozer end dump - grey, loaded
  392 sprites/pcx/standard_trailers/medium_trailer_4_wheel.pcx 34 130 01 24 12 -3 -10
  393 sprites/pcx/standard_trailers/medium_trailer_4_wheel.pcx 66 130 09 20 26 -11 -9
  394 sprites/pcx/standard_trailers/medium_trailer_4_wheel.pcx 98 130 01 16 36 -15 -7
  395 sprites/pcx/standard_trailers/medium_trailer_4_wheel.pcx 146 130 09 20 26 -9 -7
  396 sprites/pcx/standard_trailers/medium_trailer_4_wheel.pcx 178 130 01 24 12 -9 -16
  397 sprites/pcx/standard_trailers/medium_trailer_4_wheel.pcx 210 130 09 20 26 -17 -7
  398 sprites/pcx/standard_trailers/medium_trailer_4_wheel.pcx 242 130 01 16 36 -19 -8
  399 sprites/pcx/standard_trailers/medium_trailer_4_wheel.pcx 290 130 09 20 26 -13 -10
  400 * 17	 02 01 08  03 03    00 00  01 00  02 00    00 00  01 00  02 00 // iron ore ?
  401 * 17	 02 01 01  03 03    00 00  03 00  04 00    00 00  03 00  04 00 // coal ?
  402 * 17	 02 01 06  03 03    00 00  05 00  06 00    00 00  05 00  06 00 // grain ?
  403 * 17	 02 01 0E  03 03    00 00  07 00  08 00    00 00  07 00  08 00 // brown ?
  404 * 17	 02 01 0C  03 03    00 00  09 00  0A 00    00 00  09 00  0A 00 // red ?
  405 * 17	 02 01 0D  03 03    00 00  0B 00  0C 00    00 00  0B 00  0C 00 // grey ?
  // Standard bulldozer side dump sled - empty
  406 * 4	 01 01 0D 08
  407 sprites/pcx/standard_trailers/medium_sled.pcx 34 50 01 24 12 -3 -10
  408 sprites/pcx/standard_trailers/medium_sled.pcx 66 50 09 20 26 -11 -9
  409 sprites/pcx/standard_trailers/medium_sled.pcx 98 50 01 16 36 -15 -7
  410 sprites/pcx/standard_trailers/medium_sled.pcx 146 50 09 20 26 -9 -7
  411 sprites/pcx/standard_trailers/medium_sled.pcx 178 50 01 24 12 -9 -16
  412 sprites/pcx/standard_trailers/medium_sled.pcx 210 50 09 20 26 -17 -7
  413 sprites/pcx/standard_trailers/medium_sled.pcx 242 50 01 16 36 -19 -8
  414 sprites/pcx/standard_trailers/medium_sled.pcx 290 50 09 20 26 -13 -10
   // Standard bulldozer side dump sled - iron ore, loading  !! this isn't iron ore??
  415 sprites/pcx/standard_trailers/medium_sled.pcx 34 490 01 24 12 -3 -10
  416 sprites/pcx/standard_trailers/medium_sled.pcx 66 490 09 20 20 -11 -9
  417 sprites/pcx/standard_trailers/medium_sled.pcx 98 490 01 16 36 -15 -7
  418 sprites/pcx/standard_trailers/medium_sled.pcx 146 490 09 20 26 -9 -7
  419 sprites/pcx/standard_trailers/medium_sled.pcx 178 490 01 24 12 -9 -16
  420 sprites/pcx/standard_trailers/medium_sled.pcx 210 490 09 20 26 -17 -7
  421 sprites/pcx/standard_trailers/medium_sled.pcx 242 490 01 16 36 -19 -8
  422 sprites/pcx/standard_trailers/medium_sled.pcx 290 490 09 20 26 -13 -10
   // Standard bulldozer side dump sled - iron ore, loaded  !! this isn't iron ore??
  423 sprites/pcx/standard_trailers/medium_sled.pcx 34 530 01 24 12 -3 -10
  424 sprites/pcx/standard_trailers/medium_sled.pcx 66 530 09 20 20 -11 -9
  425 sprites/pcx/standard_trailers/medium_sled.pcx 98 530 01 16 36 -15 -7
  426 sprites/pcx/standard_trailers/medium_sled.pcx 146 530 09 20 26 -9 -7
  427 sprites/pcx/standard_trailers/medium_sled.pcx 178 530 01 24 12 -9 -16
  428 sprites/pcx/standard_trailers/medium_sled.pcx 210 530 09 20 26 -17 -7
  429 sprites/pcx/standard_trailers/medium_sled.pcx 242 530 01 16 36 -19 -8
  430 sprites/pcx/standard_trailers/medium_sled.pcx 290 530 09 20 26 -13 -10
   // Standard bulldozer side dump sled - coal, loading
  431 sprites/pcx/standard_trailers/medium_sled.pcx 34 170 01 24 12 -3 -10
  432 sprites/pcx/standard_trailers/medium_sled.pcx 66 170 09 20 26 -11 -9
  433 sprites/pcx/standard_trailers/medium_sled.pcx 98 170 01 16 36 -15 -7
  434 sprites/pcx/standard_trailers/medium_sled.pcx 146 170 09 20 26 -9 -7
  435 sprites/pcx/standard_trailers/medium_sled.pcx 178 170 01 24 12 -9 -16
  436 sprites/pcx/standard_trailers/medium_sled.pcx 210 170 09 20 26 -17 -7
  437 sprites/pcx/standard_trailers/medium_sled.pcx 242 170 01 16 36 -19 -8
  438 sprites/pcx/standard_trailers/medium_sled.pcx 290 170 09 20 26 -13 -10
   // Standard bulldozer side dump sled - coal, loaded
  439 sprites/pcx/standard_trailers/medium_sled.pcx 34 210 01 24 12 -3 -10
  440 sprites/pcx/standard_trailers/medium_sled.pcx 66 210 09 20 26 -11 -9
  441 sprites/pcx/standard_trailers/medium_sled.pcx 98 210 01 16 36 -15 -7
  442 sprites/pcx/standard_trailers/medium_sled.pcx 146 210 09 20 26 -9 -7
  443 sprites/pcx/standard_trailers/medium_sled.pcx 178 210 01 24 12 -9 -16
  444 sprites/pcx/standard_trailers/medium_sled.pcx 210 210 09 20 26 -17 -7
  445 sprites/pcx/standard_trailers/medium_sled.pcx 242 210 01 16 36 -19 -8
  446 sprites/pcx/standard_trailers/medium_sled.pcx 290 210 09 20 26 -13 -10
   // Standard bulldozer side dump sled - grain, loading
  447 sprites/pcx/standard_trailers/medium_sled.pcx 34 250 01 24 12 -3 -10
  448 sprites/pcx/standard_trailers/medium_sled.pcx 66 250 09 20 26 -11 -9
  449 sprites/pcx/standard_trailers/medium_sled.pcx 98 250 01 16 36 -15 -7
  450 sprites/pcx/standard_trailers/medium_sled.pcx 146 250 09 20 26 -9 -7
  451 sprites/pcx/standard_trailers/medium_sled.pcx 178 250 01 24 12 -9 -16
  452 sprites/pcx/standard_trailers/medium_sled.pcx 210 250 09 20 26 -17 -7
  453 sprites/pcx/standard_trailers/medium_sled.pcx 242 250 01 16 36 -19 -8
  454 sprites/pcx/standard_trailers/medium_sled.pcx 290 250 09 20 26 -13 -10
  // Standard bulldozer side dump sled - grain, loaded
  455 sprites/pcx/standard_trailers/medium_sled.pcx 34 290 01 24 12 -3 -10
  456 sprites/pcx/standard_trailers/medium_sled.pcx 66 290 09 20 26 -11 -9
  457 sprites/pcx/standard_trailers/medium_sled.pcx 98 290 01 16 36 -15 -7
  458 sprites/pcx/standard_trailers/medium_sled.pcx 146 290 09 20 26 -9 -7
  459 sprites/pcx/standard_trailers/medium_sled.pcx 178 290 01 24 12 -9 -16
  460 sprites/pcx/standard_trailers/medium_sled.pcx 210 290 09 20 26 -17 -7
  461 sprites/pcx/standard_trailers/medium_sled.pcx 242 290 01 16 36 -19 -8
  462 sprites/pcx/standard_trailers/medium_sled.pcx 290 290 09 20 26 -13 -10
  // Standard bulldozer side dump sled - brown, loading
  463 sprites/pcx/standard_trailers/medium_sled.pcx 34 410 01 24 12 -3 -10
  464 sprites/pcx/standard_trailers/medium_sled.pcx 66 410 09 20 26 -11 -9
  465 sprites/pcx/standard_trailers/medium_sled.pcx 98 410 01 16 36 -15 -7
  466 sprites/pcx/standard_trailers/medium_sled.pcx 146 410 09 20 26 -9 -7
  467 sprites/pcx/standard_trailers/medium_sled.pcx 178 410 01 24 12 -9 -16
  468 sprites/pcx/standard_trailers/medium_sled.pcx 210 410 09 20 26 -17 -7
  469 sprites/pcx/standard_trailers/medium_sled.pcx 242 410 01 16 36 -19 -8
  470 sprites/pcx/standard_trailers/medium_sled.pcx 290 410 09 20 26 -13 -10
  // Standard bulldozer side dump sled - brown, loaded
  471 sprites/pcx/standard_trailers/medium_sled.pcx 34 450 01 24 12 -3 -10
  472 sprites/pcx/standard_trailers/medium_sled.pcx 66 450 09 20 26 -11 -9
  473 sprites/pcx/standard_trailers/medium_sled.pcx 98 450 01 16 36 -15 -7
  474 sprites/pcx/standard_trailers/medium_sled.pcx 146 450 09 20 26 -9 -7
  475 sprites/pcx/standard_trailers/medium_sled.pcx 178 450 01 24 12 -9 -16
  476 sprites/pcx/standard_trailers/medium_sled.pcx 210 450 09 20 26 -17 -7
  477 sprites/pcx/standard_trailers/medium_sled.pcx 242 450 01 16 36 -19 -8
  478 sprites/pcx/standard_trailers/medium_sled.pcx 290 450 09 20 26 -13 -10
  // Standard bulldozer side dump sled - red, loading
  479 sprites/pcx/standard_trailers/medium_sled.pcx 34 330 01 24 12 -3 -10
  480 sprites/pcx/standard_trailers/medium_sled.pcx 66 330 09 20 26 -11 -9
  481 sprites/pcx/standard_trailers/medium_sled.pcx 98 330 01 16 36 -15 -7
  482 sprites/pcx/standard_trailers/medium_sled.pcx 146 330 09 20 26 -9 -7
  483 sprites/pcx/standard_trailers/medium_sled.pcx 178 330 01 24 12 -9 -16
  484 sprites/pcx/standard_trailers/medium_sled.pcx 210 330 09 20 26 -17 -7
  485 sprites/pcx/standard_trailers/medium_sled.pcx 242 330 01 16 36 -19 -8
  486 sprites/pcx/standard_trailers/medium_sled.pcx 290 330 09 20 26 -13 -10
  // Standard bulldozer side dump sled - red, loaded
  487 sprites/pcx/standard_trailers/medium_sled.pcx 34 370 01 24 12 -3 -10
  488 sprites/pcx/standard_trailers/medium_sled.pcx 66 370 09 20 26 -11 -9
  489 sprites/pcx/standard_trailers/medium_sled.pcx 98 370 01 16 36 -15 -7
  490 sprites/pcx/standard_trailers/medium_sled.pcx 146 370 09 20 26 -9 -7
  491 sprites/pcx/standard_trailers/medium_sled.pcx 178 370 01 24 12 -9 -16
  492 sprites/pcx/standard_trailers/medium_sled.pcx 210 370 09 20 26 -17 -7
  493 sprites/pcx/standard_trailers/medium_sled.pcx 242 370 01 16 36 -19 -8
  494 sprites/pcx/standard_trailers/medium_sled.pcx 290 370 09 20 26 -13 -10
  // Standard bulldozer side dump sled - grey, loading
  495 sprites/pcx/standard_trailers/medium_sled.pcx 34 90 01 24 12 -3 -10
  496 sprites/pcx/standard_trailers/medium_sled.pcx 66 90 09 20 26 -11 -9
  497 sprites/pcx/standard_trailers/medium_sled.pcx 98 90 01 16 36 -15 -7
  498 sprites/pcx/standard_trailers/medium_sled.pcx 146 90 09 20 26 -9 -7
  499 sprites/pcx/standard_trailers/medium_sled.pcx 178 90 01 24 12 -9 -16
  500 sprites/pcx/standard_trailers/medium_sled.pcx 210 90 09 20 26 -17 -7
  501 sprites/pcx/standard_trailers/medium_sled.pcx 242 90 01 16 36 -19 -8
  502 sprites/pcx/standard_trailers/medium_sled.pcx 290 90 09 20 26 -13 -10
  // Standard bulldozer side dump sled - grey, loaded
  503 sprites/pcx/standard_trailers/medium_sled.pcx 34 130 01 24 12 -3 -10
  504 sprites/pcx/standard_trailers/medium_sled.pcx 66 130 09 20 26 -11 -9
  505 sprites/pcx/standard_trailers/medium_sled.pcx 98 130 01 16 36 -15 -7
  506 sprites/pcx/standard_trailers/medium_sled.pcx 146 130 09 20 26 -9 -7
  507 sprites/pcx/standard_trailers/medium_sled.pcx 178 130 01 24 12 -9 -16
  508 sprites/pcx/standard_trailers/medium_sled.pcx 210 130 09 20 26 -17 -7
  509 sprites/pcx/standard_trailers/medium_sled.pcx 242 130 01 16 36 -19 -8
  510 sprites/pcx/standard_trailers/medium_sled.pcx 290 130 09 20 26 -13 -10
  511 * 17	 02 01 28  03 03    00 00  01 00  02 00    00 00  01 00  02 00 // iron ore ?
  512 * 17	 02 01 21  03 03    00 00  03 00  04 00    00 00  03 00  04 00 // coal ?
  513 * 17	 02 01 26  03 03    00 00  05 00  06 00    00 00  05 00  06 00 // grain ?
  514 * 17	 02 01 2E  03 03    00 00  07 00  08 00    00 00  07 00  08 00 // brown ?
  515 * 17	 02 01 2C  03 03    00 00  09 00  0A 00    00 00  09 00  0A 00 // red ?
  516 * 17	 02 01 2D  03 03    00 00  0B 00  0C 00    00 00  0B 00  0C 00 // grey ?
  // Standard bulldozer flat trailer
  517 * 4	 01 01 09 08
  // Standard bulldozer flat trailer - empty
  518 sprites/pcx/standard_trailers/medium_trailer_4_wheel.pcx 34 730 01 24 12 -3 -10
  519 sprites/pcx/standard_trailers/medium_trailer_4_wheel.pcx 66 730 09 20 26 -11 -9
  520 sprites/pcx/standard_trailers/medium_trailer_4_wheel.pcx 98 730 01 16 36 -15 -7
  521 sprites/pcx/standard_trailers/medium_trailer_4_wheel.pcx 146 730 09 20 26 -9 -7
  522 sprites/pcx/standard_trailers/medium_trailer_4_wheel.pcx 178 730 01 24 12 -9 -16
  523 sprites/pcx/standard_trailers/medium_trailer_4_wheel.pcx 210 730 09 20 26 -17 -7
  524 sprites/pcx/standard_trailers/medium_trailer_4_wheel.pcx 242 730 01 16 36 -19 -8
  525 sprites/pcx/standard_trailers/medium_trailer_4_wheel.pcx 290 730 09 20 26 -13 -10
  // Standard bulldozer flat trailer - steel, loading  
  526 sprites/pcx/standard_trailers/medium_trailer_4_wheel.pcx 34 970 01 24 12 -3 -10
  527 sprites/pcx/standard_trailers/medium_trailer_4_wheel.pcx 66 970 09 20 26 -11 -9
  528 sprites/pcx/standard_trailers/medium_trailer_4_wheel.pcx 98 970 01 16 36 -15 -7
  529 sprites/pcx/standard_trailers/medium_trailer_4_wheel.pcx 146 970 09 20 26 -9 -7
  530 sprites/pcx/standard_trailers/medium_trailer_4_wheel.pcx 178 970 01 24 12 -9 -16
  531 sprites/pcx/standard_trailers/medium_trailer_4_wheel.pcx 210 970 09 20 26 -17 -7
  532 sprites/pcx/standard_trailers/medium_trailer_4_wheel.pcx 242 970 01 16 36 -19 -8
  533 sprites/pcx/standard_trailers/medium_trailer_4_wheel.pcx 290 970 09 20 26 -13 -10
  // Standard bulldozer flat trailer - steel, loaded  
  534 sprites/pcx/standard_trailers/medium_trailer_4_wheel.pcx 34 970 01 24 12 -3 -10
  535 sprites/pcx/standard_trailers/medium_trailer_4_wheel.pcx 66 970 09 20 26 -11 -9
  536 sprites/pcx/standard_trailers/medium_trailer_4_wheel.pcx 98 970 01 16 36 -15 -7
  537 sprites/pcx/standard_trailers/medium_trailer_4_wheel.pcx 146 970 09 20 26 -9 -7
  538 sprites/pcx/standard_trailers/medium_trailer_4_wheel.pcx 178 970 01 24 12 -9 -16
  539 sprites/pcx/standard_trailers/medium_trailer_4_wheel.pcx 210 970 09 20 26 -17 -7
  540 sprites/pcx/standard_trailers/medium_trailer_4_wheel.pcx 242 970 01 16 36 -19 -8
  541 sprites/pcx/standard_trailers/medium_trailer_4_wheel.pcx 290 970 09 20 26 -13 -10
  // Standard bulldozer flat trailer - paper, loading  
  542 sprites/pcx/standard_trailers/medium_trailer_4_wheel.pcx 34 1130 01 24 12 -3 -10
  543 sprites/pcx/standard_trailers/medium_trailer_4_wheel.pcx 66 1130 09 20 26 -11 -9
  544 sprites/pcx/standard_trailers/medium_trailer_4_wheel.pcx 98 1130 01 16 36 -15 -7
  545 sprites/pcx/standard_trailers/medium_trailer_4_wheel.pcx 146 1130 09 20 26 -9 -7
  546 sprites/pcx/standard_trailers/medium_trailer_4_wheel.pcx 178 1130 01 24 12 -9 -16
  547 sprites/pcx/standard_trailers/medium_trailer_4_wheel.pcx 210 1130 09 20 26 -17 -7
  548 sprites/pcx/standard_trailers/medium_trailer_4_wheel.pcx 242 1130 01 16 36 -19 -8
  549 sprites/pcx/standard_trailers/medium_trailer_4_wheel.pcx 290 1130 09 20 26 -13 -10
  // Standard bulldozer flat trailer - paper, loaded  
  550 sprites/pcx/standard_trailers/medium_trailer_4_wheel.pcx 34 1130 01 24 12 -3 -10
  551 sprites/pcx/standard_trailers/medium_trailer_4_wheel.pcx 66 1130 09 20 26 -11 -9
  552 sprites/pcx/standard_trailers/medium_trailer_4_wheel.pcx 98 1130 01 16 36 -15 -7
  553 sprites/pcx/standard_trailers/medium_trailer_4_wheel.pcx 146 1130 09 20 26 -9 -7
  554 sprites/pcx/standard_trailers/medium_trailer_4_wheel.pcx 178 1130 01 24 12 -9 -16
  555 sprites/pcx/standard_trailers/medium_trailer_4_wheel.pcx 210 1130 09 20 26 -17 -7
  556 sprites/pcx/standard_trailers/medium_trailer_4_wheel.pcx 242 1130 01 16 36 -19 -8
  557 sprites/pcx/standard_trailers/medium_trailer_4_wheel.pcx 290 1130 09 20 26 -13 -10
 // Standard bulldozer flat trailer - livestock, loading  
  558 sprites/pcx/standard_trailers/medium_trailer_4_wheel.pcx 34 810 01 24 12 -3 -10
  559 sprites/pcx/standard_trailers/medium_trailer_4_wheel.pcx 66 810 09 20 26 -11 -9
  560 sprites/pcx/standard_trailers/medium_trailer_4_wheel.pcx 98 810 01 16 36 -15 -7
  561 sprites/pcx/standard_trailers/medium_trailer_4_wheel.pcx 146 810 09 20 26 -9 -7
  562 sprites/pcx/standard_trailers/medium_trailer_4_wheel.pcx 178 810 01 24 12 -9 -16
  563 sprites/pcx/standard_trailers/medium_trailer_4_wheel.pcx 210 810 09 20 26 -17 -7
  564 sprites/pcx/standard_trailers/medium_trailer_4_wheel.pcx 242 810 01 16 36 -19 -8
  565 sprites/pcx/standard_trailers/medium_trailer_4_wheel.pcx 290 810 09 20 26 -13 -10
 // Standard bulldozer flat trailer - livestock, loaded
  566 sprites/pcx/standard_trailers/medium_trailer_4_wheel.pcx 34 810 01 24 12 -3 -10
  567 sprites/pcx/standard_trailers/medium_trailer_4_wheel.pcx 66 810 09 20 26 -11 -9
  568 sprites/pcx/standard_trailers/medium_trailer_4_wheel.pcx 98 810 01 16 36 -15 -7
  569 sprites/pcx/standard_trailers/medium_trailer_4_wheel.pcx 146 810 09 20 26 -9 -7
  570 sprites/pcx/standard_trailers/medium_trailer_4_wheel.pcx 178 810 01 24 12 -9 -16
  571 sprites/pcx/standard_trailers/medium_trailer_4_wheel.pcx 210 810 09 20 26 -17 -7
  572 sprites/pcx/standard_trailers/medium_trailer_4_wheel.pcx 242 810 01 16 36 -19 -8
  573 sprites/pcx/standard_trailers/medium_trailer_4_wheel.pcx 290 810 09 20 26 -13 -10
 // Standard bulldozer flat trailer - copper, loading  
  574 sprites/pcx/standard_trailers/medium_trailer_4_wheel.pcx 34 1050 01 24 12 -3 -10
  575 sprites/pcx/standard_trailers/medium_trailer_4_wheel.pcx 66 1050 09 20 26 -11 -9
  576 sprites/pcx/standard_trailers/medium_trailer_4_wheel.pcx 98 1050 01 16 36 -15 -7
  577 sprites/pcx/standard_trailers/medium_trailer_4_wheel.pcx 146 1050 09 20 26 -9 -7
  578 sprites/pcx/standard_trailers/medium_trailer_4_wheel.pcx 178 1050 01 24 12 -9 -16
  579 sprites/pcx/standard_trailers/medium_trailer_4_wheel.pcx 210 1050 09 20 26 -17 -7
  580 sprites/pcx/standard_trailers/medium_trailer_4_wheel.pcx 242 1050 01 16 36 -19 -8
  581 sprites/pcx/standard_trailers/medium_trailer_4_wheel.pcx 290 1050 09 20 26 -13 -10
 // Standard bulldozer flat trailer - copper, loaded  
  582 sprites/pcx/standard_trailers/medium_trailer_4_wheel.pcx 34 1050 01 24 12 -3 -10
  583 sprites/pcx/standard_trailers/medium_trailer_4_wheel.pcx 66 1050 09 20 26 -11 -9
  584 sprites/pcx/standard_trailers/medium_trailer_4_wheel.pcx 98 1050 01 16 36 -15 -7
  585 sprites/pcx/standard_trailers/medium_trailer_4_wheel.pcx 146 1050 09 20 26 -9 -7
  586 sprites/pcx/standard_trailers/medium_trailer_4_wheel.pcx 178 1050 01 24 12 -9 -16
  587 sprites/pcx/standard_trailers/medium_trailer_4_wheel.pcx 210 1050 09 20 26 -17 -7
  588 sprites/pcx/standard_trailers/medium_trailer_4_wheel.pcx 242 1050 01 16 36 -19 -8
  589 sprites/pcx/standard_trailers/medium_trailer_4_wheel.pcx 290 1050 09 20 26 -13 -10
  590 * 17	 02 01 09  03 03   00 00  01 00  02 00    00 00  01 00  02 00 // steel
  591 * 17	 02 01 0B  03 03   00 00  03 00  04 00    00 00  03 00  04 00 // paper
  592 * 17	 02 01 04  03 03   00 00  05 00  06 00    00 00  05 00  06 00 // livestock
  593 * 17	 02 01 0F  03 03   00 00  07 00  08 00    00 00  07 00  08 00 // copper
  // Standard bulldozer flat sled
  594 * 4	 01 01 09 08
  // Standard bulldozer flat sled - empty
  595 sprites/pcx/standard_trailers/medium_sled.pcx 34 730 01 24 12 -3 -10
  596 sprites/pcx/standard_trailers/medium_sled.pcx 66 730 09 20 26 -11 -9
  597 sprites/pcx/standard_trailers/medium_sled.pcx 98 730 01 16 36 -15 -7
  598 sprites/pcx/standard_trailers/medium_sled.pcx 146 730 09 20 26 -9 -7
  599 sprites/pcx/standard_trailers/medium_sled.pcx 178 730 01 24 12 -9 -16
  600 sprites/pcx/standard_trailers/medium_sled.pcx 210 730 09 20 26 -17 -7
  601 sprites/pcx/standard_trailers/medium_sled.pcx 242 730 01 16 36 -19 -8
  602 sprites/pcx/standard_trailers/medium_sled.pcx 290 730 09 20 26 -13 -10
  // Standard bulldozer flat sled - steel, loading  
  603 sprites/pcx/standard_trailers/medium_sled.pcx 34 970 01 24 12 -3 -10
  604 sprites/pcx/standard_trailers/medium_sled.pcx 66 970 09 20 26 -11 -9
  605 sprites/pcx/standard_trailers/medium_sled.pcx 98 970 01 16 36 -15 -7
  606 sprites/pcx/standard_trailers/medium_sled.pcx 146 970 09 20 26 -9 -7
  607 sprites/pcx/standard_trailers/medium_sled.pcx 178 970 01 24 12 -9 -16
  608 sprites/pcx/standard_trailers/medium_sled.pcx 210 970 09 20 26 -17 -7
  609 sprites/pcx/standard_trailers/medium_sled.pcx 242 970 01 16 36 -19 -8
  610 sprites/pcx/standard_trailers/medium_sled.pcx 290 970 09 20 26 -13 -10
  // Standard bulldozer flat sled - steel, loaded  
  611 sprites/pcx/standard_trailers/medium_sled.pcx 34 970 01 24 12 -3 -10
  612 sprites/pcx/standard_trailers/medium_sled.pcx 66 970 09 20 26 -11 -9
  613 sprites/pcx/standard_trailers/medium_sled.pcx 98 970 01 16 36 -15 -7
  614 sprites/pcx/standard_trailers/medium_sled.pcx 146 970 09 20 26 -9 -7
  615 sprites/pcx/standard_trailers/medium_sled.pcx 178 970 01 24 12 -9 -16
  616 sprites/pcx/standard_trailers/medium_sled.pcx 210 970 09 20 26 -17 -7
  617 sprites/pcx/standard_trailers/medium_sled.pcx 242 970 01 16 36 -19 -8
  618 sprites/pcx/standard_trailers/medium_sled.pcx 290 970 09 20 26 -13 -10
  // Standard bulldozer flat sled - paper, loading  
  619 sprites/pcx/standard_trailers/medium_sled.pcx 34 1130 01 24 12 -3 -10
  620 sprites/pcx/standard_trailers/medium_sled.pcx 66 1130 09 20 26 -11 -9
  621 sprites/pcx/standard_trailers/medium_sled.pcx 98 1130 01 16 36 -15 -7
  622 sprites/pcx/standard_trailers/medium_sled.pcx 146 1130 09 20 26 -9 -7
  623 sprites/pcx/standard_trailers/medium_sled.pcx 178 1130 01 24 12 -9 -16
  624 sprites/pcx/standard_trailers/medium_sled.pcx 210 1130 09 20 26 -17 -7
  625 sprites/pcx/standard_trailers/medium_sled.pcx 242 1130 01 16 36 -19 -8
  626 sprites/pcx/standard_trailers/medium_sled.pcx 290 1130 09 20 26 -13 -10
  // Standard bulldozer flat sled - paper, loaded  
  627 sprites/pcx/standard_trailers/medium_sled.pcx 34 1130 01 24 12 -3 -10
  628 sprites/pcx/standard_trailers/medium_sled.pcx 66 1130 09 20 26 -11 -9
  629 sprites/pcx/standard_trailers/medium_sled.pcx 98 1130 01 16 36 -15 -7
  630 sprites/pcx/standard_trailers/medium_sled.pcx 146 1130 09 20 26 -9 -7
  631 sprites/pcx/standard_trailers/medium_sled.pcx 178 1130 01 24 12 -9 -16
  632 sprites/pcx/standard_trailers/medium_sled.pcx 210 1130 09 20 26 -17 -7
  633 sprites/pcx/standard_trailers/medium_sled.pcx 242 1130 01 16 36 -19 -8
  634 sprites/pcx/standard_trailers/medium_sled.pcx 290 1130 09 20 26 -13 -10
 // Standard bulldozer flat sled - livestock, loading  
  635 sprites/pcx/standard_trailers/medium_sled.pcx 34 810 01 24 12 -3 -10
  636 sprites/pcx/standard_trailers/medium_sled.pcx 66 810 09 20 26 -11 -9
  637 sprites/pcx/standard_trailers/medium_sled.pcx 98 810 01 16 36 -15 -7
  638 sprites/pcx/standard_trailers/medium_sled.pcx 146 810 09 20 26 -9 -7
  639 sprites/pcx/standard_trailers/medium_sled.pcx 178 810 01 24 12 -9 -16
  640 sprites/pcx/standard_trailers/medium_sled.pcx 210 810 09 20 26 -17 -7
  641 sprites/pcx/standard_trailers/medium_sled.pcx 242 810 01 16 36 -19 -8
  642 sprites/pcx/standard_trailers/medium_sled.pcx 290 810 09 20 26 -13 -10
 // Standard bulldozer flat sled - livestock, loaded
  643 sprites/pcx/standard_trailers/medium_sled.pcx 34 810 01 24 12 -3 -10
  644 sprites/pcx/standard_trailers/medium_sled.pcx 66 810 09 20 26 -11 -9
  645 sprites/pcx/standard_trailers/medium_sled.pcx 98 810 01 16 36 -15 -7
  646 sprites/pcx/standard_trailers/medium_sled.pcx 146 810 09 20 26 -9 -7
  647 sprites/pcx/standard_trailers/medium_sled.pcx 178 810 01 24 12 -9 -16
  648 sprites/pcx/standard_trailers/medium_sled.pcx 210 810 09 20 26 -17 -7
  649 sprites/pcx/standard_trailers/medium_sled.pcx 242 810 01 16 36 -19 -8
  650 sprites/pcx/standard_trailers/medium_sled.pcx 290 810 09 20 26 -13 -10
 // Standard bulldozer flat sled - copper, loading  
  651 sprites/pcx/standard_trailers/medium_sled.pcx 34 1050 01 24 12 -3 -10
  652 sprites/pcx/standard_trailers/medium_sled.pcx 66 1050 09 20 26 -11 -9
  653 sprites/pcx/standard_trailers/medium_sled.pcx 98 1050 01 16 36 -15 -7
  654 sprites/pcx/standard_trailers/medium_sled.pcx 146 1050 09 20 26 -9 -7
  655 sprites/pcx/standard_trailers/medium_sled.pcx 178 1050 01 24 12 -9 -16
  656 sprites/pcx/standard_trailers/medium_sled.pcx 210 1050 09 20 26 -17 -7
  657 sprites/pcx/standard_trailers/medium_sled.pcx 242 1050 01 16 36 -19 -8
  658 sprites/pcx/standard_trailers/medium_sled.pcx 290 1050 09 20 26 -13 -10
 // Standard bulldozer flat sled - copper, loaded  
  659 sprites/pcx/standard_trailers/medium_sled.pcx 34 1050 01 24 12 -3 -10
  660 sprites/pcx/standard_trailers/medium_sled.pcx 66 1050 09 20 26 -11 -9
  661 sprites/pcx/standard_trailers/medium_sled.pcx 98 1050 01 16 36 -15 -7
  662 sprites/pcx/standard_trailers/medium_sled.pcx 146 1050 09 20 26 -9 -7
  663 sprites/pcx/standard_trailers/medium_sled.pcx 178 1050 01 24 12 -9 -16
  664 sprites/pcx/standard_trailers/medium_sled.pcx 210 1050 09 20 26 -17 -7
  665 sprites/pcx/standard_trailers/medium_sled.pcx 242 1050 01 16 36 -19 -8
  666 sprites/pcx/standard_trailers/medium_sled.pcx 290 1050 09 20 26 -13 -10
  667 * 17	 02 01 29  03 03   00 00  01 00  02 00    00 00  01 00  02 00 // steel
  668 * 17	 02 01 2B  03 03   00 00  03 00  04 00    00 00  03 00  04 00 // paper
  669 * 17	 02 01 24  03 03   00 00  05 00  06 00    00 00  05 00  06 00 // livestock
  670 * 17	 02 01 2F  03 03   00 00  07 00  08 00    00 00  07 00  08 00 // copper
  671 * 4	 01 01 03 08  
    // Standard bulldozer stake trailer - empty
  672 sprites/pcx/standard_trailers/medium_trailer_4_wheel.pcx 34 610 01 24 12 -3 -10
  673 sprites/pcx/standard_trailers/medium_trailer_4_wheel.pcx 66 610 09 20 26 -11 -9
  674 sprites/pcx/standard_trailers/medium_trailer_4_wheel.pcx 98 610 01 16 36 -15 -7
  675 sprites/pcx/standard_trailers/medium_trailer_4_wheel.pcx 146 610 09 20 26 -9 -7
  676 sprites/pcx/standard_trailers/medium_trailer_4_wheel.pcx 178 610 01 24 12 -9 -16
  677 sprites/pcx/standard_trailers/medium_trailer_4_wheel.pcx 210 610 09 20 26 -17 -7
  678 sprites/pcx/standard_trailers/medium_trailer_4_wheel.pcx 242 610 01 16 36 -19 -8
  679 sprites/pcx/standard_trailers/medium_trailer_4_wheel.pcx 290 610 09 20 26 -13 -10
    // Standard bulldozer stake trailer - Wood, loading  
  680 sprites/pcx/standard_trailers/medium_trailer_4_wheel.pcx 34 650 01 24 12 -3 -10
  681 sprites/pcx/standard_trailers/medium_trailer_4_wheel.pcx 66 650 09 20 26 -11 -9
  682 sprites/pcx/standard_trailers/medium_trailer_4_wheel.pcx 98 650 01 16 36 -15 -7
  683 sprites/pcx/standard_trailers/medium_trailer_4_wheel.pcx 146 650 09 20 26 -9 -7
  684 sprites/pcx/standard_trailers/medium_trailer_4_wheel.pcx 178 650 01 24 12 -9 -16
  685 sprites/pcx/standard_trailers/medium_trailer_4_wheel.pcx 210 650 09 20 26 -17 -7
  686 sprites/pcx/standard_trailers/medium_trailer_4_wheel.pcx 242 650 01 16 36 -19 -8
  687 sprites/pcx/standard_trailers/medium_trailer_4_wheel.pcx 290 650 09 20 26 -13 -10
    // Standard bulldozer stake trailer - Wood, loaded  
  688 sprites/pcx/standard_trailers/medium_trailer_4_wheel.pcx 34 690 01 24 12 -3 -10
  689 sprites/pcx/standard_trailers/medium_trailer_4_wheel.pcx 66 690 09 20 26 -11 -9
  690 sprites/pcx/standard_trailers/medium_trailer_4_wheel.pcx 98 690 01 16 36 -15 -7
  691 sprites/pcx/standard_trailers/medium_trailer_4_wheel.pcx 146 690 09 20 26 -9 -7
  692 sprites/pcx/standard_trailers/medium_trailer_4_wheel.pcx 178 690 01 24 12 -9 -16
  693 sprites/pcx/standard_trailers/medium_trailer_4_wheel.pcx 210 690 09 20 26 -17 -7
  694 sprites/pcx/standard_trailers/medium_trailer_4_wheel.pcx 242 690 01 16 36 -19 -8
  695 sprites/pcx/standard_trailers/medium_trailer_4_wheel.pcx 290 690 09 20 26 -13 -10
  696 * 17	 02 01 07  03 03   00 00  01 00  02 00    00 00  01 00  02 00 // wood
  697 * 4	 01 01 03 08  
    // Standard bulldozer stake sled - empty
  698 sprites/pcx/standard_trailers/medium_sled.pcx 34 610 01 24 12 -3 -10
  699 sprites/pcx/standard_trailers/medium_sled.pcx 66 610 09 20 26 -11 -9
  700 sprites/pcx/standard_trailers/medium_sled.pcx 98 610 01 16 36 -15 -7
  701 sprites/pcx/standard_trailers/medium_sled.pcx 146 610 09 20 26 -9 -7
  702 sprites/pcx/standard_trailers/medium_sled.pcx 178 610 01 24 12 -9 -16
  703 sprites/pcx/standard_trailers/medium_sled.pcx 210 610 09 20 26 -17 -7
  704 sprites/pcx/standard_trailers/medium_sled.pcx 242 610 01 16 36 -19 -8
  705 sprites/pcx/standard_trailers/medium_sled.pcx 290 610 09 20 26 -13 -10
    // Standard bulldozer stake sled - Wood, loading  
  706 sprites/pcx/standard_trailers/medium_sled.pcx 34 650 01 24 12 -3 -10
  707 sprites/pcx/standard_trailers/medium_sled.pcx 66 650 09 20 26 -11 -9
  708 sprites/pcx/standard_trailers/medium_sled.pcx 98 650 01 16 36 -15 -7
  709 sprites/pcx/standard_trailers/medium_sled.pcx 146 650 09 20 26 -9 -7
  710 sprites/pcx/standard_trailers/medium_sled.pcx 178 650 01 24 12 -9 -16
  711 sprites/pcx/standard_trailers/medium_sled.pcx 210 650 09 20 26 -17 -7
  712 sprites/pcx/standard_trailers/medium_sled.pcx 242 650 01 16 36 -19 -8
  713 sprites/pcx/standard_trailers/medium_sled.pcx 290 650 09 20 26 -13 -10
    // Standard bulldozer stake sled - Wood, loaded  
  714 sprites/pcx/standard_trailers/medium_sled.pcx 34 690 01 24 12 -3 -10
  715 sprites/pcx/standard_trailers/medium_sled.pcx 66 690 09 20 26 -11 -9
  716 sprites/pcx/standard_trailers/medium_sled.pcx 98 690 01 16 36 -15 -7
  717 sprites/pcx/standard_trailers/medium_sled.pcx 146 690 09 20 26 -9 -7
  718 sprites/pcx/standard_trailers/medium_sled.pcx 178 690 01 24 12 -9 -16
  719 sprites/pcx/standard_trailers/medium_sled.pcx 210 690 09 20 26 -17 -7
  720 sprites/pcx/standard_trailers/medium_sled.pcx 242 690 01 16 36 -19 -8
  721 sprites/pcx/standard_trailers/medium_sled.pcx 290 690 09 20 26 -13 -10
  722 * 17	 02 01 27  03 03   00 00  01 00  02 00    00 00  01 00  02 00 // wood
    // Standard bulldozer tank trailer
  723 * 4	 01 01 01 08
  724 sprites/pcx/standard_trailers/medium_trailer_4_wheel.pcx 34 10 01 24 12 -3 -10
  725 sprites/pcx/standard_trailers/medium_trailer_4_wheel.pcx 66 10 09 20 26 -11 -9
  726 sprites/pcx/standard_trailers/medium_trailer_4_wheel.pcx 98 10 01 16 36 -15 -7
  727 sprites/pcx/standard_trailers/medium_trailer_4_wheel.pcx 146 10 09 20 26 -9 -7
  728 sprites/pcx/standard_trailers/medium_trailer_4_wheel.pcx 178 10 01 24 12 -9 -16
  729 sprites/pcx/standard_trailers/medium_trailer_4_wheel.pcx 210 10 09 20 26 -17 -7
  730 sprites/pcx/standard_trailers/medium_trailer_4_wheel.pcx 242 10 01 16 36 -19 -8
  731 sprites/pcx/standard_trailers/medium_trailer_4_wheel.pcx 290 10 09 20 26 -13 -10
  732 * 9	 02 01 03   01 01    00 00    00 00 // tank trailer
    // Standard bulldozer tank trailer
  733 * 4	 01 01 01 08
  734 sprites/pcx/standard_trailers/medium_sled.pcx 34 10 01 24 12 -3 -10
  735 sprites/pcx/standard_trailers/medium_sled.pcx 66 10 09 20 26 -11 -9
  736 sprites/pcx/standard_trailers/medium_sled.pcx 98 10 01 16 36 -15 -7
  737 sprites/pcx/standard_trailers/medium_sled.pcx 146 10 09 20 26 -9 -7
  738 sprites/pcx/standard_trailers/medium_sled.pcx 178 10 01 24 12 -9 -16
  739 sprites/pcx/standard_trailers/medium_sled.pcx 210 10 09 20 26 -17 -7
  740 sprites/pcx/standard_trailers/medium_sled.pcx 242 10 01 16 36 -19 -8
  741 sprites/pcx/standard_trailers/medium_sled.pcx 290 10 09 20 26 -13 -10
  742 * 9	 02 01 23   01 01    00 00    00 00 // tank sled
  // Rough order of business here:
      // set length and refit texts
      // choose sleds or trailers action 2 branch
      // find cargo of vehicle, choose action 2 matching
  743 * 70	 02 01 CE  // choose sled sprites according to cargo
                 81 47 00 FF // var 47 in format ccccwwtt where I want tt 
                 0F // range
                  21 00 01 01 // coal
                  26 00 06 06 // grain 
                  26 00 19 19 // sand (reuses grain sprites) 
                  26 00 1B 1B // wheat 
                  26 00 1D 1D // maize 
                  28 00 08 08 // iron ore
                  23 00 03 03 // oil
                  23 00 0F 0F // water
                  23 00 10 10 // rubber
                  24 00 04 04 // livestock                  
                  29 00 09 09 // steel                  
                  27 00 07 07 // wood  
                  2B 00 0B 0B // paper
                  2E 00 0E 0E // copper ore
                  27 00 1E 1E // tropical wood
                 25 00 // default 
  744 * 70	 02 01 CD  // choose wheeled trailer sprites according to cargo slot (in cargo translation tt)
                 81 47 00 FF // var 47 in format ccccwwtt where I want tt 
                 0F // range
                  01 00 01 01 // coal
                  06 00 06 06 // grain 
                  06 00 19 19 // sand (reuses grain sprites) 
                  06 00 1B 1B // wheat 
                  06 00 1D 1D // maize 
                  08 00 08 08 // iron ore
                  03 00 03 03 // oil
                  03 00 0F 0F // water
                  03 00 10 10 // rubber
                  04 00 04 04 // livestock                  
                  09 00 09 09 // steel                  
                  07 00 07 07 // wood  
                  0B 00 0B 0B // paper
                  0E 00 0E 0E // copper ore
                  07 00 1E 1E // tropical wood
                 05 00 // default 
  745 * 18	 02 01 CC  // set refit text strings
                 81 F2 00 FF //
                 02 // range
                  00 80 00 00 
                  01 80 01 01 
                 FF 80 // end callback chain
  746 * 18	 02 01 CB  // choose sprites according to refit
                 81 F2 00 FF //
                 02 // range
                  CD 00 00 00 // wheeled trailers 
                  CE 00 01 01 // sleds
                 05 00 // default 
  747 * 18	 02 01 C0  // handle callbacks
                 81 0C 00 FF //
                 02 // range
                  02 80 11 11 // vehicle length CB
                  CC 00 19 19 // text suffix CB 
                 CB 00 // graphics
  748 * 7	 03 01 01 6E // Action 3
    00 // Number of cargo types 
	  C0 00 // default
  749 * 7	 03 01 01 6F // Action 3
    00 // Number of cargo types  
	  C0 00 // default
  750 * 7	 03 01 01 70 // Action 3
    00 // Number of cargo types 
	  C0 00 // default
  751 * 7	 03 01 01 71 // Action 3
    00 // Number of cargo types 
	  C0 00 // default
  752 * 7	 03 01 01 72 // Action 3
    00 // Number of cargo types 
	  C0 00 // default
  753 * 7	 03 01 01 73 // Action 3
    00 // Number of cargo types 
	  C0 00 // default

   // Large / Very large bulldozer trailer
     // Lower capacity trailers use Large graphics.  Higher capacity use Very Large graphics.
     // Rough order of business here
       // Bulldozer trailers vary capacity depending on date vehicle is built
       // Can't get CB 36 to do that on build, only on refit (oh so close)
       // So instead define multiple vehicles using the same real sprites
       // Only difference is capacity
       // Lead vehicle chooses different trailers depending on date
       // This is inefficient on source code, also on ID use, but we have 255 IDs to play with so should be ok.
     // NOTE: Don't use IDs > 128 for trailers in articulated consists (lead vehicle ID can be > 128)
  754 * 67	 00 01 19 01 7A
    00 00 00  // intro date 
    02 20     // reliability 
    03 11     // vehicle life 
    04 23     // class life 
    06 00     // climate 
    07 05     // load amount 
    08 80     // speed in mph * 3.2
    09 1E     // running cost factor 
    0A 48 4C 00 00    // running cost base 
    0E FF     // sprite ID
    0F \b30   // capacity
    10 FF     // cargo type
    11 34     // cost factor
    12 17     // sound effect
    13 \b00   // power in 10 hp
    14 \b01   // weight in 1/4 tons
    15 20     // speed in mph * 0.8
    16 C0 20 00 68    // bit mask of cargo types available for refitting
    // flips 1D / 1E values: excludes fruit, grain, wheat, maize; includes Wood, tropical wood
    17 11     // callback flags bit mask
    1A 00     // refit cost, using 25% of the purchase price cost base
    1B 00     // retire vehicle early, this many years before the end of phase 2
    1C 02     // miscellaneous vehicle flags
    1D 10 00  // refittable cargo classes
    1E EF 03  // non-refittable cargo classes
    1F 60 B3 0A 00    // long format introduction date  
  755 * 67	 00 01 19 01 7B
    00 00 00  // intro date 
    02 20     // reliability 
    03 11     // vehicle life 
    04 23     // class life 
    06 00     // climate 
    07 05     // load amount 
    08 80     // speed in mph * 3.2
    09 1E     // running cost factor 
    0A 48 4C 00 00      // running cost base 
    0E FF     // sprite ID
    0F \b36   // capacity
    10 FF     // cargo type
    11 34     // cost factor
    12 17     // sound effect
[...]
 1108 sprites/pcx/standard_trailers/bulldozer_trailer_very_large.pcx 34 850 01 26 12 -6 -16
 1109 sprites/pcx/standard_trailers/bulldozer_trailer_very_large.pcx 66 850 09 23 26 -16 -10
 1110 sprites/pcx/standard_trailers/bulldozer_trailer_very_large.pcx 98 850 01 17 36 -14 -10
 1111 sprites/pcx/standard_trailers/bulldozer_trailer_very_large.pcx 146 850 09 23 26 -10 -11
 1112 sprites/pcx/standard_trailers/bulldozer_trailer_very_large.pcx 178 850 01 26 12 -7 -16
 1113 sprites/pcx/standard_trailers/bulldozer_trailer_very_large.pcx 210 850 09 23 26 -17 -11
 1114 sprites/pcx/standard_trailers/bulldozer_trailer_very_large.pcx 242 850 01 17 36 -26 -11
 1115 sprites/pcx/standard_trailers/bulldozer_trailer_very_large.pcx 290 850 09 23 26 -10 -13
 1116 * 37	 02 01 27  08 08    
      00 00  01 00  02 00  03 00  04 00  05 00  06 00  07 00
      00 00  01 00  02 00  03 00  04 00  05 00  06 00  07 00 // wood 
 // multiple actions 2s apply graphics by cargo & capacity (hard coded due to CB 36 not working as expected with aRVs)
 // action 2 real sprite IDs 0x are Large trailers 2x are Very Large trailers                 
 // Action 2 for Large trailers
 1117 * 30	 02 01 CB // choose sprites according to cargo slot (in cargo translation tt)
                 81 47 00 FF // var 47 in format ccccwwtt where I want tt 
                 05 // range
                  01 00 01 01 // format: id | cargo
                  08 00 08 08
                  0E 00 0E 0E
                  07 00 07 07
                  06 00 19 19
                 11 00 // default
 1118 * 14	 02 01 CA  // handle callbacks
                 81 0C 00 FF //
                 01 // range
                  02 80 11 11 // vehicle length CB
                 CB 00 // graphics
// Action 2 for Very Large trailer
 1119 * 30	 02 01 CE // choose sprites according to cargo slot (in cargo translation tt)
                 81 47 00 FF // var 47 in format ccccwwtt where I want tt 
                 05 // range
                  21 00 01 01 // format: id | cargo
                  28 00 08 08
                  2E 00 0E 0E
                  27 00 07 07
                  26 00 19 19
                 31 00 // default 
 1120 * 14	 02 01 CD  // handle callbacks
                 81 0C 00 FF //
                 01 // range
                  00 80 11 11 // vehicle length CB
                 CE 00 // graphics
 1121 * 7	 03 01 01 7A // Action 3
      00  // Number of different cargo types to support  
      CA 00 // default
 1122 * 7	 03 01 01 7B // Action 3
      00  // Number of different cargo types to support  
      CA 00 // default
 1123 * 7	 03 01 01 7C // Action 3
      00  // Number of different cargo types to support  
      CA 00 // default
 1124 * 7	 03 01 01 7D // Action 3
      00  // Number of different cargo types to support  
      CA 00 // default
 1125 * 7	 03 01 01 7E // Action 3
      00  // Number of different cargo types to support  
      CD 00 // default
 1126 * 7	 03 01 01 7F // Action 3
      00  // Number of different cargo types to support  
      CD 00 // default

  // -------------- end of Bulldozer Trailers --------------- //



  // -----------------  Large Float / Sled Trailers -----------//      

  // Float / Sled Trailer large
       // Rough order of business here
       // Float / sled trailers vary capacity depending on date vehicle is built
       // Can't get CB 36 to do that on build, only on refit (oh so close)
       // So instead define multiple vehicles using the same real sprites
       // Only difference is capacity
       // Lead vehicle chooses different trailers depending on date
       // This is inefficient on source code, also on ID use, but we have 255 IDs to play with so should be ok.
     // NOTE: Don't use IDs > 128 for trailers in articulated consists (lead vehicle ID can be > 128)
 1127 * 67	 00 01 19 01 74
      00 00 00  // intro date
      02 20     // reliability
      03 19     // vehicle life
      04 23     // class life
      06 00     // climate
      07 05     // load amount
      08 E0     // speed in mph * 3.2
      09 08     // running cost factor
      0A 48 4C 00 00    // running cost base
      0E FF     // sprite ID
      0F \b12   // capacity
      10 06     // cargo type
      11 00     // cost factor
      12 00     // sound effect
      13 \b00   // power in 10 hp
      14 \b01   // weight in 1/4 tons
      15 38     // speed in mph * 0.8
      16 00 00 00 00    // bit mask of cargo types available for refitting
      17 30     // callback flags bit mask
      1A 00     // refit cost, using 25% of the purchase price cost base
      1B 00     // retire vehicle early, this many years before the end of phase 2
      1C 02     // miscellaneous vehicle flags 
      1D FF 03  // refittable cargo classes
      1E 01 00  // non-refittable cargo classes
      1F 60 B3 0A 00    // long format introduction date     
 1128 * 67	 00 01 19 01 75
      00 00 00  // intro date
      02 20     // reliability
      03 19     // vehicle life
      04 23     // class life
      06 00     // climate
      07 05     // load amount
      08 E0     // speed in mph * 3.2
      09 08     // running cost factor
      0A 48 4C 00 00    // running cost base
      0E FF     // sprite ID
      0F \b12   // capacity
      10 06     // cargo type
      11 00     // cost factor
      12 00     // sound effect
      13 \b00   // power in 10 hp
      14 \b01   // weight in 1/4 tons
      15 38     // speed in mph * 0.8
      16 00 00 00 00    // bit mask of cargo types available for refitting
      17 30     // callback flags bit mask
      1A 00     // refit cost, using 25% of the purchase price cost base
      1B 00     // retire vehicle early, this many years before the end of phase 2
      1C 02     // miscellaneous vehicle flags 
      1D FF 03  // refittable cargo classes
      1E 01 00  // non-refittable cargo classes
      1F 60 B3 0A 00    // long format introduction date     
 1129 * 67	 00 01 19 01 76
      00 00 00  // intro date
      02 20     // reliability
      03 19     // vehicle life
      04 23     // class life
      06 00     // climate
      07 05     // load amount
      08 E0     // speed in mph * 3.2
      09 08     // running cost factor
      0A 48 4C 00 00    // running cost base
      0E FF     // sprite ID
      0F \b14   // capacity
      10 06     // cargo type
      11 00     // cost factor
      12 00     // sound effect
      13 \b00   // power in 10 hp
      14 \b01   // weight in 1/4 tons
      15 38     // speed in mph * 0.8
      16 00 00 00 00    // bit mask of cargo types available for refitting
      17 30     // callback flags bit mask
      1A 00     // refit cost, using 25% of the purchase price cost base
      1B 00     // retire vehicle early, this many years before the end of phase 2
      1C 02     // miscellaneous vehicle flags 
      1D FF 03  // refittable cargo classes
      1E 01 00  // non-refittable cargo classes
      1F 60 B3 0A 00    // long format introduction date     
 1130 * 67	 00 01 19 01 77
      00 00 00  // intro date
      02 20     // reliability
      03 19     // vehicle life
      04 23     // class life
      06 00     // climate
      07 05     // load amount
      08 E0     // speed in mph * 3.2
      09 08     // running cost factor
      0A 48 4C 00 00    // running cost base
      0E FF     // sprite ID
      0F \b19   // capacity
      10 06     // cargo type
      11 00     // cost factor
      12 00     // sound effect
      13 \b00   // power in 10 hp
      14 \b01   // weight in 1/4 tons
      15 38     // speed in mph * 0.8
      16 00 00 00 00    // bit mask of cargo types available for refitting
      17 30     // callback flags bit mask
      1A 00     // refit cost, using 25% of the purchase price cost base
      1B 00     // retire vehicle early, this many years before the end of phase 2
      1C 02     // miscellaneous vehicle flags 
      1D FF 03  // refittable cargo classes
      1E 01 00  // non-refittable cargo classes
      1F 60 B3 0A 00    // long format introduction date     
 1131 * 67	 00 01 \b25 01 78
      00 00 00  // intro date
      02 20     // reliability
      03 19     // vehicle life
      04 23     // class life
      06 00     // climate
      07 05     // load amount
      08 E0     // speed in mph * 3.2
      09 08     // running cost factor
      0A 48 4C 00 00    // running cost base
      0E FF     // sprite ID
      0F \b24   // capacity
      10 06     // cargo type
      11 00     // cost factor
      12 00     // sound effect
      13 \b00   // power in 10 hp
      14 \b01   // weight in 1/4 tons
      15 38     // speed in mph * 0.8
      16 00 00 00 00    // bit mask of cargo types available for refitting
      17 30     // callback flags bit mask
      1A 00     // refit cost, using 25% of the purchase price cost base
      1B 00     // retire vehicle early, this many years before the end of phase 2
      1C 02     // miscellaneous vehicle flags 
      1D FF 03  // refittable cargo classes
      1E 01 00  // non-refittable cargo classes
      1F 60 B3 0A 00    // long format introduction date     
 1132 * 67	 00 01 19 01 79
      00 00 00  // intro date
      02 20     // reliability
      03 19     // vehicle life
      04 23     // class life
      06 00     // climate
      07 05     // load amount
      08 E0     // speed in mph * 3.2
      09 08     // running cost factor
      0A 48 4C 00 00    // running cost base
      0E FF     // sprite ID
      0F \b29   // capacity
      10 06     // cargo type
      11 00     // cost factor
      12 00     // sound effect
      13 \b00   // power in 10 hp
      14 \b01   // weight in 1/4 tons
      15 38     // speed in mph * 0.8
      16 00 00 00 00    // bit mask of cargo types available for refitting
      17 22     // callback flags bit mask
      1A 00     // refit cost, using 25% of the purchase price cost base
      1B 00     // retire vehicle early, this many years before the end of phase 2
      1C 02     // miscellaneous vehicle flags 
      1D FF 03  // refittable cargo classes
      1E 01 00  // non-refittable cargo classes
      1F 60 B3 0A 00    // long format introduction date     
 1133 * 42	 04 01 7F 01 74 "[Generic Large Float / Sled Trailer]" 00
  // define additional text suffixes
 1134 * 35	 04 00 81 02 02 D0
            		" (Flotation Trailer)" 00	// D000 = "1st class"
               	" (Sled)" 00	// D001 = "2nd class"
  // Action 2 ID schema: 0 / 1 = wheeled trailer, 2 / 3 = sled
   // Large Float Trailer open empty
 1135 * 4	 01 01 03 08
 1136 sprites/pcx/standard_trailers/large_float_trailers_and_sleds.pcx 34 50 01 24 12 -5 -14
 1137 sprites/pcx/standard_trailers/large_float_trailers_and_sleds.pcx 66 50 09 20 26 -15 -7
 1138 sprites/pcx/standard_trailers/large_float_trailers_and_sleds.pcx 98 50 01 16 36 -16 -9
 1139 sprites/pcx/standard_trailers/large_float_trailers_and_sleds.pcx 146 50 09 20 26 -15 -11
 1140 sprites/pcx/standard_trailers/large_float_trailers_and_sleds.pcx 178 50 01 24 12 -7 -16
 1141 sprites/pcx/standard_trailers/large_float_trailers_and_sleds.pcx 210 50 09 20 26 -11 -11
 1142 sprites/pcx/standard_trailers/large_float_trailers_and_sleds.pcx 242 50 01 16 36 -19 -10
 1143 sprites/pcx/standard_trailers/large_float_trailers_and_sleds.pcx 290 50 09 20 26 -10 -9
   // Large Float Trailer open loading
 1144 sprites/pcx/standard_trailers/large_float_trailers_and_sleds.pcx 34 90 01 24 12 -5 -14
 1145 sprites/pcx/standard_trailers/large_float_trailers_and_sleds.pcx 66 90 09 20 26 -15 -7
 1146 sprites/pcx/standard_trailers/large_float_trailers_and_sleds.pcx 98 90 01 16 36 -16 -9
 1147 sprites/pcx/standard_trailers/large_float_trailers_and_sleds.pcx 146 90 09 20 26 -15 -11
 1148 sprites/pcx/standard_trailers/large_float_trailers_and_sleds.pcx 178 90 01 24 12 -7 -16
 1149 sprites/pcx/standard_trailers/large_float_trailers_and_sleds.pcx 210 90 09 20 26 -11 -11
 1150 sprites/pcx/standard_trailers/large_float_trailers_and_sleds.pcx 242 90 01 16 36 -19 -10
 1151 sprites/pcx/standard_trailers/large_float_trailers_and_sleds.pcx 290 90 09 20 26 -10 -9
   // Large Float Trailer open loaded
 1152 sprites/pcx/standard_trailers/large_float_trailers_and_sleds.pcx 34 130 01 24 12 -5 -14
 1153 sprites/pcx/standard_trailers/large_float_trailers_and_sleds.pcx 66 130 09 20 26 -15 -7
 1154 sprites/pcx/standard_trailers/large_float_trailers_and_sleds.pcx 98 130 01 16 36 -16 -9
 1155 sprites/pcx/standard_trailers/large_float_trailers_and_sleds.pcx 146 130 09 20 26 -15 -11
 1156 sprites/pcx/standard_trailers/large_float_trailers_and_sleds.pcx 178 130 01 24 12 -7 -16
 1157 sprites/pcx/standard_trailers/large_float_trailers_and_sleds.pcx 210 130 09 20 26 -11 -11
 1158 sprites/pcx/standard_trailers/large_float_trailers_and_sleds.pcx 242 130 01 16 36 -19 -10
 1159 sprites/pcx/standard_trailers/large_float_trailers_and_sleds.pcx 290 130 09 20 26 -10 -9
 1160 * 13	 02 01 05   02 02   00 00  02 00    00 00  01 00 // open trailer
   // Large sled open
 1161 * 4	 01 01 03 08
 1162 sprites/pcx/standard_trailers/large_float_trailers_and_sleds.pcx 34 570 01 24 12 -5 -14
 1163 sprites/pcx/standard_trailers/large_float_trailers_and_sleds.pcx 66 570 01 20 26 -15 -7
 1164 sprites/pcx/standard_trailers/large_float_trailers_and_sleds.pcx 98 570 01 16 36 -16 -9
 1165 sprites/pcx/standard_trailers/large_float_trailers_and_sleds.pcx 146 570 01 20 26 -15 -11
 1166 sprites/pcx/standard_trailers/large_float_trailers_and_sleds.pcx 178 570 01 24 12 -7 -16
 1167 sprites/pcx/standard_trailers/large_float_trailers_and_sleds.pcx 210 570 01 20 26 -11 -11
 1168 sprites/pcx/standard_trailers/large_float_trailers_and_sleds.pcx 242 570 01 16 36 -19 -10
 1169 sprites/pcx/standard_trailers/large_float_trailers_and_sleds.pcx 290 570 01 20 26 -10 -9
   // Large sled open - loading
 1170 sprites/pcx/standard_trailers/large_float_trailers_and_sleds.pcx 34 610 01 24 12 -5 -14
 1171 sprites/pcx/standard_trailers/large_float_trailers_and_sleds.pcx 66 610 01 20 26 -15 -7
 1172 sprites/pcx/standard_trailers/large_float_trailers_and_sleds.pcx 98 610 01 16 36 -16 -9
 1173 sprites/pcx/standard_trailers/large_float_trailers_and_sleds.pcx 146 610 01 20 26 -15 -11
 1174 sprites/pcx/standard_trailers/large_float_trailers_and_sleds.pcx 178 610 01 24 12 -7 -16
 1175 sprites/pcx/standard_trailers/large_float_trailers_and_sleds.pcx 210 610 01 20 26 -11 -11
 1176 sprites/pcx/standard_trailers/large_float_trailers_and_sleds.pcx 242 610 01 16 36 -19 -10
 1177 sprites/pcx/standard_trailers/large_float_trailers_and_sleds.pcx 290 610 01 20 26 -10 -9
   // Large sled open - loaded
 1178 sprites/pcx/standard_trailers/large_float_trailers_and_sleds.pcx 34 650 01 24 12 -5 -14
 1179 sprites/pcx/standard_trailers/large_float_trailers_and_sleds.pcx 66 650 01 20 26 -15 -7
 1180 sprites/pcx/standard_trailers/large_float_trailers_and_sleds.pcx 98 650 01 16 36 -16 -9
 1181 sprites/pcx/standard_trailers/large_float_trailers_and_sleds.pcx 146 650 01 20 26 -15 -11
 1182 sprites/pcx/standard_trailers/large_float_trailers_and_sleds.pcx 178 650 01 24 12 -7 -16
 1183 sprites/pcx/standard_trailers/large_float_trailers_and_sleds.pcx 210 650 01 20 26 -11 -11
 1184 sprites/pcx/standard_trailers/large_float_trailers_and_sleds.pcx 242 650 01 16 36 -19 -10
 1185 sprites/pcx/standard_trailers/large_float_trailers_and_sleds.pcx 290 650 01 20 26 -10 -9
 1186 * 17	 02 01 25   03 03   00 00  01 00  02 00    00 00  01 00  02 00 // open sled
    // Large Float tank trailer
 1187 * 4	 01 01 01 08
 1188 sprites/pcx/standard_trailers/large_float_trailers_and_sleds.pcx 34 10 01 24 12 -5 -14
 1189 sprites/pcx/standard_trailers/large_float_trailers_and_sleds.pcx 66 10 09 20 26 -15 -7
 1190 sprites/pcx/standard_trailers/large_float_trailers_and_sleds.pcx 98 10 01 16 36 -16 -9
 1191 sprites/pcx/standard_trailers/large_float_trailers_and_sleds.pcx 146 10 09 20 26 -15 -11
 1192 sprites/pcx/standard_trailers/large_float_trailers_and_sleds.pcx 178 10 01 24 12 -7 -16
 1193 sprites/pcx/standard_trailers/large_float_trailers_and_sleds.pcx 210 10 09 20 26 -11 -11
 1194 sprites/pcx/standard_trailers/large_float_trailers_and_sleds.pcx 242 10 01 16 36 -19 -10
 1195 sprites/pcx/standard_trailers/large_float_trailers_and_sleds.pcx 290 10 09 20 26 -10 -9
 1196 * 9	 02 01 03   01 01    00 00    00 00 // tank trailer
    // Large tank sled
 1197 * 4	 01 01 01 08
 1198 sprites/pcx/standard_trailers/large_float_trailers_and_sleds.pcx 34 530 01 24 12 -5 -14
 1199 sprites/pcx/standard_trailers/large_float_trailers_and_sleds.pcx 66 530 09 20 26 -15 -7
 1200 sprites/pcx/standard_trailers/large_float_trailers_and_sleds.pcx 98 530 01 16 36 -16 -9
 1201 sprites/pcx/standard_trailers/large_float_trailers_and_sleds.pcx 146 530 09 20 26 -15 -11
 1202 sprites/pcx/standard_trailers/large_float_trailers_and_sleds.pcx 178 530 01 24 12 -7 -16
 1203 sprites/pcx/standard_trailers/large_float_trailers_and_sleds.pcx 210 530 09 20 26 -11 -11
 1204 sprites/pcx/standard_trailers/large_float_trailers_and_sleds.pcx 242 530 01 16 36 -19 -10
 1205 sprites/pcx/standard_trailers/large_float_trailers_and_sleds.pcx 290 530 09 20 26 -10 -9
 1206 * 9	 02 01 23   01 01    00 00    00 00 // tank sled
  // Rough order of business here:
      // set length and refit texts
      // choose sleds or trailers action 2 branch
      // find cargo of vehicle, choose action 2 matching
 1207 * 22	 02 01 CE  // choose sled sprites according to cargo
                 81 47 00 FF // var 47 in format ccccwwtt where I want tt 
                 03 // range
                  23 00 03 03 // oil
                  23 00 0F 0F // water
                  23 00 10 10 // rubber
                 25 00 // default 
 1208 * 22	 02 01 CD  // choose wheeled float trailer sprites according to cargo slot (in cargo translation tt)
                 81 47 00 FF // var 47 in format ccccwwtt where I want tt 
                 03 // range
                  03 00 03 03 // oil
                  03 00 0F 0F // water
                  03 00 10 10 // rubber
                 05 00 // default 
 1209 * 18	 02 01 CC  // set refit text strings
                 81 F2 00 FF //
                 02 // range
                  02 80 00 00 
                  03 80 01 01 
                 FF 80 // end callback chain
 1210 * 18	 02 01 CB  // choose sprites according to refit
                 81 F2 00 FF //
                 02 // range
                  CD 00 00 00 // wheeled trailers 
                  CE 00 01 01 // sleds
                 05 00 // default 
 1211 * 18	 02 01 C0  // handle callbacks
                 81 0C 00 FF //
                 02 // range
                  00 80 11 11 // vehicle length CB
                  CC 00 19 19 // text suffix (refits) CB 
                 CB 00 // graphics
 1212 * 7	 03 01 01 74 // Action 3
    00 // Number of different cargo types to support (!! Hex) 
	  C0 00 // default
 1213 * 7	 03 01 01 75 // Action 3
    00 // Number of different cargo types to support (!! Hex) 
	  C0 00 // default
 1214 * 7	 03 01 01 76 // Action 3
    00 // Number of different cargo types to support (!! Hex) 
	  C0 00 // default
 1215 * 7	 03 01 01 77 // Action 3
    00 // Number of different cargo types to support (!! Hex) 
	  C0 00 // default
 1216 * 7	 03 01 01 78 // Action 3
    00 // Number of different cargo types to support (!! Hex) 
	  C0 00 // default
 1217 * 7	 03 01 01 79 // Action 3
    00 // Number of different cargo types to support (!! Hex) 
	  C0 00 // default

  // ----------------- end of Large Float / Sled Trailers -----------//