  // -------------- Belly Dump Trailers for Mining Trucks --------------- //
   // Medium belly dump trailer 
   // Used by Thunder Mountain articulated dump truck
 1810 * 67	 00 01 1A 01 06
    00 00 00  // intro date (min value: 1-1-1920) 
    02 20     // reliability 
    03 11     // vehicle life 
    04 23     // class life 
    06 00     // climate 
    07 05     // load amount 
    08 80     // speed in mph * 3.2
    09 1E     // running cost factor 
    0A 48 4C 00 00    // running cost base 
    0E FF     // sprite ID
    0F \b90     // capacity
    10 FF     // cargo type
    11 34     // cost factor
    12 17     // sound effect
    13 \b0     // power in 10 hp
    14 \b96     // weight in 1/4 tons
    15 \b48     // speed in mph * 0.8
    16 40 00 00 28     // Bit mask of cargo types available for refitting
    // flips 1D / 1E values: excludes grain, wheat, maize
    17 16     // callback flags bit mask
    18 00             // coefficient of tractive effort (use 0 for trailers)
    1A 00     // refit cost, using 25% of the purchase price cost base
    1B 00     // retire vehicle early, this many years before the end of phase 2
    1C 02     // Miscellaneous vehicle flags 01 = tram, 02 = use 2CC
    1D 10 00          // refittable cargo classes
    1E EF 03          // non-refittable cargo classes
    1F 60 B3 0A 00    // long format introduction date  
 1811 * 6	 07 83 01 \7! 02 01 // tropic only
 1812 * 7	 00 01 01 01 06 10 08// copper ore default
 1813 * 23	 04 01 7F 01 06 "Medium Belly Dump" 00
   // Medium belly dump A (rear wheels only) - empty
 1814 * 4	 01 01 0D 08
 1815 sprites/pcx/standard_trailers/mining_truck_trailer_medium_A.pcx 34 50 01 24 12 -3 -16
 1816 sprites/pcx/standard_trailers/mining_truck_trailer_medium_A.pcx 66 50 09 20 26 -14 -7
 1817 sprites/pcx/standard_trailers/mining_truck_trailer_medium_A.pcx 98 50 01 16 36 -14 -8
 1818 sprites/pcx/standard_trailers/mining_truck_trailer_medium_A.pcx 146 50 09 20 26 -10 -8
 1819 sprites/pcx/standard_trailers/mining_truck_trailer_medium_A.pcx 178 50 01 24 12 -9 -16
 1820 sprites/pcx/standard_trailers/mining_truck_trailer_medium_A.pcx 210 50 09 20 26 -17 -8
 1821 sprites/pcx/standard_trailers/mining_truck_trailer_medium_A.pcx 242 50 01 16 36 -26 -9
 1822 sprites/pcx/standard_trailers/mining_truck_trailer_medium_A.pcx 290 50 09 20 26 -10 -10
   // Medium belly dump A (rear wheels only) - iron ore, loading
 1823 sprites/pcx/standard_trailers/mining_truck_trailer_medium_A.pcx 34 490 01 24 12 -3 -16
 1824 sprites/pcx/standard_trailers/mining_truck_trailer_medium_A.pcx 66 490 09 20 20 -14 -7
 1825 sprites/pcx/standard_trailers/mining_truck_trailer_medium_A.pcx 98 490 01 16 36 -14 -8
 1826 sprites/pcx/standard_trailers/mining_truck_trailer_medium_A.pcx 146 490 09 20 26 -10 -8
 1827 sprites/pcx/standard_trailers/mining_truck_trailer_medium_A.pcx 178 490 01 24 12 -9 -16
 1828 sprites/pcx/standard_trailers/mining_truck_trailer_medium_A.pcx 210 490 09 20 26 -17 -8
 1829 sprites/pcx/standard_trailers/mining_truck_trailer_medium_A.pcx 242 490 01 16 36 -26 -9
 1830 sprites/pcx/standard_trailers/mining_truck_trailer_medium_A.pcx 290 490 09 20 26 -10 -10
   // Medium belly dump A (rear wheels only) - iron ore, loaded
 1831 sprites/pcx/standard_trailers/mining_truck_trailer_medium_A.pcx 34 530 01 24 12 -3 -16
 1832 sprites/pcx/standard_trailers/mining_truck_trailer_medium_A.pcx 66 530 09 20 20 -14 -7
 1833 sprites/pcx/standard_trailers/mining_truck_trailer_medium_A.pcx 98 530 01 16 36 -14 -8
 1834 sprites/pcx/standard_trailers/mining_truck_trailer_medium_A.pcx 146 530 09 20 26 -10 -8
 1835 sprites/pcx/standard_trailers/mining_truck_trailer_medium_A.pcx 178 530 01 24 12 -9 -16
 1836 sprites/pcx/standard_trailers/mining_truck_trailer_medium_A.pcx 210 530 09 20 26 -17 -8
 1837 sprites/pcx/standard_trailers/mining_truck_trailer_medium_A.pcx 242 530 01 16 36 -26 -9
 1838 sprites/pcx/standard_trailers/mining_truck_trailer_medium_A.pcx 290 530 09 20 26 -10 -10
   // Medium belly dump A (rear wheels only) - coal, loading
 1839 sprites/pcx/standard_trailers/mining_truck_trailer_medium_A.pcx 34 170 01 24 12 -3 -16
 1840 sprites/pcx/standard_trailers/mining_truck_trailer_medium_A.pcx 66 170 09 20 26 -14 -7
 1841 sprites/pcx/standard_trailers/mining_truck_trailer_medium_A.pcx 98 170 01 16 36 -14 -8
 1842 sprites/pcx/standard_trailers/mining_truck_trailer_medium_A.pcx 146 170 09 20 26 -10 -8
 1843 sprites/pcx/standard_trailers/mining_truck_trailer_medium_A.pcx 178 170 01 24 12 -9 -16
 1844 sprites/pcx/standard_trailers/mining_truck_trailer_medium_A.pcx 210 170 09 20 26 -17 -8
 1845 sprites/pcx/standard_trailers/mining_truck_trailer_medium_A.pcx 242 170 01 16 36 -26 -9
 1846 sprites/pcx/standard_trailers/mining_truck_trailer_medium_A.pcx 290 170 09 20 26 -10 -10
   // Medium belly dump A (rear wheels only) - coal, loaded
 1847 sprites/pcx/standard_trailers/mining_truck_trailer_medium_A.pcx 34 210 01 24 12 -3 -16
 1848 sprites/pcx/standard_trailers/mining_truck_trailer_medium_A.pcx 66 210 09 20 26 -14 -7
 1849 sprites/pcx/standard_trailers/mining_truck_trailer_medium_A.pcx 98 210 01 16 36 -14 -8
 1850 sprites/pcx/standard_trailers/mining_truck_trailer_medium_A.pcx 146 210 09 20 26 -10 -8
 1851 sprites/pcx/standard_trailers/mining_truck_trailer_medium_A.pcx 178 210 01 24 12 -9 -16
 1852 sprites/pcx/standard_trailers/mining_truck_trailer_medium_A.pcx 210 210 09 20 26 -17 -8
 1853 sprites/pcx/standard_trailers/mining_truck_trailer_medium_A.pcx 242 210 01 16 36 -26 -9
 1854 sprites/pcx/standard_trailers/mining_truck_trailer_medium_A.pcx 290 210 09 20 26 -10 -10
   // Medium belly dump A (rear wheels only) - sand, loading
 1855 sprites/pcx/standard_trailers/mining_truck_trailer_medium_A.pcx 34 250 01 24 12 -3 -16
 1856 sprites/pcx/standard_trailers/mining_truck_trailer_medium_A.pcx 66 250 09 20 26 -14 -7
 1857 sprites/pcx/standard_trailers/mining_truck_trailer_medium_A.pcx 98 250 01 16 36 -14 -8
 1858 sprites/pcx/standard_trailers/mining_truck_trailer_medium_A.pcx 146 250 09 20 26 -10 -8
 1859 sprites/pcx/standard_trailers/mining_truck_trailer_medium_A.pcx 178 250 01 24 12 -9 -16
 1860 sprites/pcx/standard_trailers/mining_truck_trailer_medium_A.pcx 210 250 09 20 26 -17 -8
 1861 sprites/pcx/standard_trailers/mining_truck_trailer_medium_A.pcx 242 250 01 16 36 -26 -9
 1862 sprites/pcx/standard_trailers/mining_truck_trailer_medium_A.pcx 290 250 09 20 26 -10 -10
  // Medium belly dump A (rear wheels only) - sand, loaded
 1863 sprites/pcx/standard_trailers/mining_truck_trailer_medium_A.pcx 34 290 01 24 12 -3 -16
 1864 sprites/pcx/standard_trailers/mining_truck_trailer_medium_A.pcx 66 290 09 20 26 -14 -7
 1865 sprites/pcx/standard_trailers/mining_truck_trailer_medium_A.pcx 98 290 01 16 36 -14 -8
 1866 sprites/pcx/standard_trailers/mining_truck_trailer_medium_A.pcx 146 290 09 20 26 -10 -8
 1867 sprites/pcx/standard_trailers/mining_truck_trailer_medium_A.pcx 178 290 01 24 12 -9 -16
 1868 sprites/pcx/standard_trailers/mining_truck_trailer_medium_A.pcx 210 290 09 20 26 -17 -8
 1869 sprites/pcx/standard_trailers/mining_truck_trailer_medium_A.pcx 242 290 01 16 36 -26 -9
 1870 sprites/pcx/standard_trailers/mining_truck_trailer_medium_A.pcx 290 290 09 20 26 -10 -10
  // Medium belly dump A (rear wheels only) - brown, loading
 1871 sprites/pcx/standard_trailers/mining_truck_trailer_medium_A.pcx 34 410 01 24 12 -3 -16
 1872 sprites/pcx/standard_trailers/mining_truck_trailer_medium_A.pcx 66 410 09 20 26 -14 -7
 1873 sprites/pcx/standard_trailers/mining_truck_trailer_medium_A.pcx 98 410 01 16 36 -14 -8
 1874 sprites/pcx/standard_trailers/mining_truck_trailer_medium_A.pcx 146 410 09 20 26 -10 -8
 1875 sprites/pcx/standard_trailers/mining_truck_trailer_medium_A.pcx 178 410 01 24 12 -9 -16
 1876 sprites/pcx/standard_trailers/mining_truck_trailer_medium_A.pcx 210 410 09 20 26 -17 -8
 1877 sprites/pcx/standard_trailers/mining_truck_trailer_medium_A.pcx 242 410 01 16 36 -26 -9
 1878 sprites/pcx/standard_trailers/mining_truck_trailer_medium_A.pcx 290 410 09 20 26 -10 -10
  // Medium belly dump A (rear wheels only) - brown, loaded
 1879 sprites/pcx/standard_trailers/mining_truck_trailer_medium_A.pcx 34 450 01 24 12 -3 -16
 1880 sprites/pcx/standard_trailers/mining_truck_trailer_medium_A.pcx 66 450 09 20 26 -14 -7
 1881 sprites/pcx/standard_trailers/mining_truck_trailer_medium_A.pcx 98 450 01 16 36 -14 -8
 1882 sprites/pcx/standard_trailers/mining_truck_trailer_medium_A.pcx 146 450 09 20 26 -10 -8
 1883 sprites/pcx/standard_trailers/mining_truck_trailer_medium_A.pcx 178 450 01 24 12 -9 -16
 1884 sprites/pcx/standard_trailers/mining_truck_trailer_medium_A.pcx 210 450 09 20 26 -17 -8
 1885 sprites/pcx/standard_trailers/mining_truck_trailer_medium_A.pcx 242 450 01 16 36 -26 -9
 1886 sprites/pcx/standard_trailers/mining_truck_trailer_medium_A.pcx 290 450 09 20 26 -10 -10
  // Medium belly dump A (rear wheels only) - red, loading
 1887 sprites/pcx/standard_trailers/mining_truck_trailer_medium_A.pcx 34 370 01 24 12 -3 -16
 1888 sprites/pcx/standard_trailers/mining_truck_trailer_medium_A.pcx 66 370 09 20 26 -14 -7
 1889 sprites/pcx/standard_trailers/mining_truck_trailer_medium_A.pcx 98 370 01 16 36 -14 -8
 1890 sprites/pcx/standard_trailers/mining_truck_trailer_medium_A.pcx 146 370 09 20 26 -10 -8
 1891 sprites/pcx/standard_trailers/mining_truck_trailer_medium_A.pcx 178 370 01 24 12 -9 -16
 1892 sprites/pcx/standard_trailers/mining_truck_trailer_medium_A.pcx 210 370 09 20 26 -17 -8
 1893 sprites/pcx/standard_trailers/mining_truck_trailer_medium_A.pcx 242 370 01 16 36 -26 -9
 1894 sprites/pcx/standard_trailers/mining_truck_trailer_medium_A.pcx 290 370 09 20 26 -10 -10
  // Medium belly dump A (rear wheels only) - red, loaded
 1895 sprites/pcx/standard_trailers/mining_truck_trailer_medium_A.pcx 34 370 01 24 12 -3 -16
 1896 sprites/pcx/standard_trailers/mining_truck_trailer_medium_A.pcx 66 370 09 20 26 -14 -7
 1897 sprites/pcx/standard_trailers/mining_truck_trailer_medium_A.pcx 98 370 01 16 36 -14 -8
 1898 sprites/pcx/standard_trailers/mining_truck_trailer_medium_A.pcx 146 370 09 20 26 -10 -8
 1899 sprites/pcx/standard_trailers/mining_truck_trailer_medium_A.pcx 178 370 01 24 12 -9 -16
 1900 sprites/pcx/standard_trailers/mining_truck_trailer_medium_A.pcx 210 370 09 20 26 -17 -8
 1901 sprites/pcx/standard_trailers/mining_truck_trailer_medium_A.pcx 242 370 01 16 36 -26 -9
 1902 sprites/pcx/standard_trailers/mining_truck_trailer_medium_A.pcx 290 370 09 20 26 -10 -10
  // Medium belly dump A (rear wheels only) - grey, loading
 1903 sprites/pcx/standard_trailers/mining_truck_trailer_medium_A.pcx 34 90 01 24 12 -3 -16
 1904 sprites/pcx/standard_trailers/mining_truck_trailer_medium_A.pcx 66 90 09 20 26 -14 -7
 1905 sprites/pcx/standard_trailers/mining_truck_trailer_medium_A.pcx 98 90 01 16 36 -14 -8
 1906 sprites/pcx/standard_trailers/mining_truck_trailer_medium_A.pcx 146 90 09 20 26 -10 -8
 1907 sprites/pcx/standard_trailers/mining_truck_trailer_medium_A.pcx 178 90 01 24 12 -9 -16
 1908 sprites/pcx/standard_trailers/mining_truck_trailer_medium_A.pcx 210 90 09 20 26 -17 -8
 1909 sprites/pcx/standard_trailers/mining_truck_trailer_medium_A.pcx 242 90 01 16 36 -26 -9
 1910 sprites/pcx/standard_trailers/mining_truck_trailer_medium_A.pcx 290 90 09 20 26 -10 -10
  // Medium belly dump A (rear wheels only) - grey, loaded
 1911 sprites/pcx/standard_trailers/mining_truck_trailer_medium_A.pcx 34 130 01 24 12 -3 -16
 1912 sprites/pcx/standard_trailers/mining_truck_trailer_medium_A.pcx 66 130 09 20 26 -14 -7
 1913 sprites/pcx/standard_trailers/mining_truck_trailer_medium_A.pcx 98 130 01 16 36 -14 -8
 1914 sprites/pcx/standard_trailers/mining_truck_trailer_medium_A.pcx 146 130 09 20 26 -10 -8
 1915 sprites/pcx/standard_trailers/mining_truck_trailer_medium_A.pcx 178 130 01 24 12 -9 -16
 1916 sprites/pcx/standard_trailers/mining_truck_trailer_medium_A.pcx 210 130 09 20 26 -17 -8
 1917 sprites/pcx/standard_trailers/mining_truck_trailer_medium_A.pcx 242 130 01 16 36 -26 -9
 1918 sprites/pcx/standard_trailers/mining_truck_trailer_medium_A.pcx 290 130 09 20 26 -10 -10
 // Action 2 ID schema: 0 / 1 = rear wheels only, 2 / 3 = with front wheels  
 1919 * 17	 02 01 08  03 03    00 00  01 00  02 00    00 00  01 00  02 00 // iron ore
 1920 * 17	 02 01 01  03 03    00 00  03 00  04 00    00 00  03 00  04 00 // coal
 1921 * 17	 02 01 06  03 03    00 00  05 00  06 00    00 00  05 00  06 00 // sand
 1922 * 17	 02 01 0E  03 03    00 00  07 00  08 00    00 00  07 00  08 00 // brown 
 1923 * 17	 02 01 17  03 03    00 00  09 00  0A 00    00 00  09 00  0A 00 // red
 1924 * 17	 02 01 11  03 03    00 00  0B 00  0C 00    00 00  0B 00  0C 00 // grey
 1925 * 26	 02 01 CD // choose belly dump A sprites according to cargo slot (in cargo translation tt)
                 81 47 00 FF // var 47 in format ccccwwtt where I want tt 
                 06 // range
                  01 00  01 01 // COAL (format is: ID | cargo) 
                  08 00  08 08 // IORE
<<<<<<< local
                  17 00  0E 0E // CORE
                  17 00  18 18 // AORE (bauxite)
=======
                  0E 00  0E 0E // CORE
                  0E 00  18 18 // AORE (bauxite)
>>>>>>> other
                  06 00  19 19 // SAND
                  11 00  1A 1A // GRVL
                 11 00 // default 
 1926 * 7	 03 01 01 06 // Action 3
      00  // Number of different cargo types to support  
      CD 00 // default

   // Large belly dump trailer
   // Used by large articulated mining trucks
 1927 * 67	 00 01 1A 01 07
    00 00 00  // intro date (min value: 1-1-1920) 
    02 20     // reliability 
    03 11     // vehicle life 
    04 23     // class life 
    06 00     // climate 
    07 05     // load amount 
    08 80     // speed in mph * 3.2
    09 1E     // running cost factor 
    0A 48 4C 00 00    // running cost base 
    0E FF     // sprite ID
    0F \b120     // capacity
    10 FF     // cargo type
    11 34     // cost factor
    12 17     // sound effect
    13 \b0     // power in 10 hp
    14 \b132     // weight in 1/4 tons
    15 \b48     // speed in mph * 0.8
    16 40 00 00 28     // Bit mask of cargo types available for refitting
    // flips 1D / 1E values: excludes grain, wheat, maize
    17 16     // Callback flags bit mask
    18 00             // coefficient of tractive effort (use 0 for trailers)
    1A 00     // Refit cost, using 25% of the purchase price cost base
    1B 00     // Retire vehicle early, this many years before the end of phase 2
    1C 02     // Miscellaneous vehicle flags 01 = tram, 02 = use 2CC
    1D 10 00          // Refittable cargo classes
    1E EF 03          // Non-refittable cargo classes
    1F 60 B3 0A 00    // Long format introduction date  
 1928 * 6	 07 83 01 \7! 02 01 // tropic only
 1929 * 7	 00 01 01 01 07 10 08// copper ore default
 1930 * 22	 04 01 7F 01 07 "Large Belly Dump" 00
   // Large belly dump A (rear wheels only) - empty
 1931 * 4	 01 01 0D 08
 1932 sprites/pcx/standard_trailers/mining_truck_trailer_large_A.pcx 34 50 01 24 12 -3 -16
 1933 sprites/pcx/standard_trailers/mining_truck_trailer_large_A.pcx 66 50 09 20 26 -14 -7
 1934 sprites/pcx/standard_trailers/mining_truck_trailer_large_A.pcx 98 50 01 16 36 -14 -8
 1935 sprites/pcx/standard_trailers/mining_truck_trailer_large_A.pcx 146 50 09 20 26 -10 -8
 1936 sprites/pcx/standard_trailers/mining_truck_trailer_large_A.pcx 178 50 01 24 12 -9 -16
 1937 sprites/pcx/standard_trailers/mining_truck_trailer_large_A.pcx 210 50 09 20 26 -17 -8
 1938 sprites/pcx/standard_trailers/mining_truck_trailer_large_A.pcx 242 50 01 16 36 -26 -9
 1939 sprites/pcx/standard_trailers/mining_truck_trailer_large_A.pcx 290 50 09 20 26 -10 -10
   // Large belly dump A (rear wheels only) - iron ore, loading
 1940 sprites/pcx/standard_trailers/mining_truck_trailer_large_A.pcx 34 490 01 24 12 -3 -16
 1941 sprites/pcx/standard_trailers/mining_truck_trailer_large_A.pcx 66 490 09 20 20 -14 -7
 1942 sprites/pcx/standard_trailers/mining_truck_trailer_large_A.pcx 98 490 01 16 36 -14 -8
 1943 sprites/pcx/standard_trailers/mining_truck_trailer_large_A.pcx 146 490 09 20 26 -10 -8
 1944 sprites/pcx/standard_trailers/mining_truck_trailer_large_A.pcx 178 490 01 24 12 -9 -16
 1945 sprites/pcx/standard_trailers/mining_truck_trailer_large_A.pcx 210 490 09 20 26 -17 -8
 1946 sprites/pcx/standard_trailers/mining_truck_trailer_large_A.pcx 242 490 01 16 36 -26 -9
 1947 sprites/pcx/standard_trailers/mining_truck_trailer_large_A.pcx 290 490 09 20 26 -10 -10
   // Large belly dump A (rear wheels only) - iron ore, loaded
 1948 sprites/pcx/standard_trailers/mining_truck_trailer_large_A.pcx 34 530 01 24 12 -3 -16
 1949 sprites/pcx/standard_trailers/mining_truck_trailer_large_A.pcx 66 530 09 20 20 -14 -7
 1950 sprites/pcx/standard_trailers/mining_truck_trailer_large_A.pcx 98 530 01 16 36 -14 -8
 1951 sprites/pcx/standard_trailers/mining_truck_trailer_large_A.pcx 146 530 09 20 26 -10 -8
 1952 sprites/pcx/standard_trailers/mining_truck_trailer_large_A.pcx 178 530 01 24 12 -9 -16
 1953 sprites/pcx/standard_trailers/mining_truck_trailer_large_A.pcx 210 530 09 20 26 -17 -8
 1954 sprites/pcx/standard_trailers/mining_truck_trailer_large_A.pcx 242 530 01 16 36 -26 -9
 1955 sprites/pcx/standard_trailers/mining_truck_trailer_large_A.pcx 290 530 09 20 26 -10 -10
   // Large belly dump A (rear wheels only) - coal, loading
 1956 sprites/pcx/standard_trailers/mining_truck_trailer_large_A.pcx 34 170 01 24 12 -3 -16
 1957 sprites/pcx/standard_trailers/mining_truck_trailer_large_A.pcx 66 170 09 20 26 -14 -7
 1958 sprites/pcx/standard_trailers/mining_truck_trailer_large_A.pcx 98 170 01 16 36 -14 -8
 1959 sprites/pcx/standard_trailers/mining_truck_trailer_large_A.pcx 146 170 09 20 26 -10 -8
 1960 sprites/pcx/standard_trailers/mining_truck_trailer_large_A.pcx 178 170 01 24 12 -9 -16
 1961 sprites/pcx/standard_trailers/mining_truck_trailer_large_A.pcx 210 170 09 20 26 -17 -8
 1962 sprites/pcx/standard_trailers/mining_truck_trailer_large_A.pcx 242 170 01 16 36 -26 -9
 1963 sprites/pcx/standard_trailers/mining_truck_trailer_large_A.pcx 290 170 09 20 26 -10 -10
   // Large belly dump A (rear wheels only) - coal, loaded
 1964 sprites/pcx/standard_trailers/mining_truck_trailer_large_A.pcx 34 210 01 24 12 -3 -16
 1965 sprites/pcx/standard_trailers/mining_truck_trailer_large_A.pcx 66 210 09 20 26 -14 -7
 1966 sprites/pcx/standard_trailers/mining_truck_trailer_large_A.pcx 98 210 01 16 36 -14 -8
 1967 sprites/pcx/standard_trailers/mining_truck_trailer_large_A.pcx 146 210 09 20 26 -10 -8
 1968 sprites/pcx/standard_trailers/mining_truck_trailer_large_A.pcx 178 210 01 24 12 -9 -16
 1969 sprites/pcx/standard_trailers/mining_truck_trailer_large_A.pcx 210 210 09 20 26 -17 -8
 1970 sprites/pcx/standard_trailers/mining_truck_trailer_large_A.pcx 242 210 01 16 36 -26 -9
 1971 sprites/pcx/standard_trailers/mining_truck_trailer_large_A.pcx 290 210 09 20 26 -10 -10
   // Large belly dump A (rear wheels only) - sand, loading
 1972 sprites/pcx/standard_trailers/mining_truck_trailer_large_A.pcx 34 250 01 24 12 -3 -16
 1973 sprites/pcx/standard_trailers/mining_truck_trailer_large_A.pcx 66 250 09 20 26 -14 -7
 1974 sprites/pcx/standard_trailers/mining_truck_trailer_large_A.pcx 98 250 01 16 36 -14 -8
 1975 sprites/pcx/standard_trailers/mining_truck_trailer_large_A.pcx 146 250 09 20 26 -10 -8
 1976 sprites/pcx/standard_trailers/mining_truck_trailer_large_A.pcx 178 250 01 24 12 -9 -16
 1977 sprites/pcx/standard_trailers/mining_truck_trailer_large_A.pcx 210 250 09 20 26 -17 -8
 1978 sprites/pcx/standard_trailers/mining_truck_trailer_large_A.pcx 242 250 01 16 36 -26 -9
 1979 sprites/pcx/standard_trailers/mining_truck_trailer_large_A.pcx 290 250 09 20 26 -10 -10
  // Large belly dump A (rear wheels only) - sand, loaded
 1980 sprites/pcx/standard_trailers/mining_truck_trailer_large_A.pcx 34 290 01 24 12 -3 -16
 1981 sprites/pcx/standard_trailers/mining_truck_trailer_large_A.pcx 66 290 09 20 26 -14 -7
 1982 sprites/pcx/standard_trailers/mining_truck_trailer_large_A.pcx 98 290 01 16 36 -14 -8
 1983 sprites/pcx/standard_trailers/mining_truck_trailer_large_A.pcx 146 290 09 20 26 -10 -8
 1984 sprites/pcx/standard_trailers/mining_truck_trailer_large_A.pcx 178 290 01 24 12 -9 -16
 1985 sprites/pcx/standard_trailers/mining_truck_trailer_large_A.pcx 210 290 09 20 26 -17 -8
 1986 sprites/pcx/standard_trailers/mining_truck_trailer_large_A.pcx 242 290 01 16 36 -26 -9
 1987 sprites/pcx/standard_trailers/mining_truck_trailer_large_A.pcx 290 290 09 20 26 -10 -10
  // Large belly dump A (rear wheels only) - brown, loading
 1988 sprites/pcx/standard_trailers/mining_truck_trailer_large_A.pcx 34 410 01 24 12 -3 -16
 1989 sprites/pcx/standard_trailers/mining_truck_trailer_large_A.pcx 66 410 09 20 26 -14 -7
 1990 sprites/pcx/standard_trailers/mining_truck_trailer_large_A.pcx 98 410 01 16 36 -14 -8
 1991 sprites/pcx/standard_trailers/mining_truck_trailer_large_A.pcx 146 410 09 20 26 -10 -8
 1992 sprites/pcx/standard_trailers/mining_truck_trailer_large_A.pcx 178 410 01 24 12 -9 -16
 1993 sprites/pcx/standard_trailers/mining_truck_trailer_large_A.pcx 210 410 09 20 26 -17 -8
 1994 sprites/pcx/standard_trailers/mining_truck_trailer_large_A.pcx 242 410 01 16 36 -26 -9
 1995 sprites/pcx/standard_trailers/mining_truck_trailer_large_A.pcx 290 410 09 20 26 -10 -10
  // Large belly dump A (rear wheels only) - brown, loaded
 1996 sprites/pcx/standard_trailers/mining_truck_trailer_large_A.pcx 34 450 01 24 12 -3 -16
 1997 sprites/pcx/standard_trailers/mining_truck_trailer_large_A.pcx 66 450 09 20 26 -14 -7
 1998 sprites/pcx/standard_trailers/mining_truck_trailer_large_A.pcx 98 450 01 16 36 -14 -8
 1999 sprites/pcx/standard_trailers/mining_truck_trailer_large_A.pcx 146 450 09 20 26 -10 -8
 2000 sprites/pcx/standard_trailers/mining_truck_trailer_large_A.pcx 178 450 01 24 12 -9 -16
 2001 sprites/pcx/standard_trailers/mining_truck_trailer_large_A.pcx 210 450 09 20 26 -17 -8
 2002 sprites/pcx/standard_trailers/mining_truck_trailer_large_A.pcx 242 450 01 16 36 -26 -9
 2003 sprites/pcx/standard_trailers/mining_truck_trailer_large_A.pcx 290 450 09 20 26 -10 -10
  // Large belly dump A (rear wheels only) - red, loading
 2004 sprites/pcx/standard_trailers/mining_truck_trailer_large_A.pcx 34 370 01 24 12 -3 -16
 2005 sprites/pcx/standard_trailers/mining_truck_trailer_large_A.pcx 66 370 09 20 26 -14 -7
 2006 sprites/pcx/standard_trailers/mining_truck_trailer_large_A.pcx 98 370 01 16 36 -14 -8
 2007 sprites/pcx/standard_trailers/mining_truck_trailer_large_A.pcx 146 370 09 20 26 -10 -8
 2008 sprites/pcx/standard_trailers/mining_truck_trailer_large_A.pcx 178 370 01 24 12 -9 -16
 2009 sprites/pcx/standard_trailers/mining_truck_trailer_large_A.pcx 210 370 09 20 26 -17 -8
 2010 sprites/pcx/standard_trailers/mining_truck_trailer_large_A.pcx 242 370 01 16 36 -26 -9
 2011 sprites/pcx/standard_trailers/mining_truck_trailer_large_A.pcx 290 370 09 20 26 -10 -10
  // Large belly dump A (rear wheels only) - red, loaded
 2012 sprites/pcx/standard_trailers/mining_truck_trailer_large_A.pcx 34 370 01 24 12 -3 -16
 2013 sprites/pcx/standard_trailers/mining_truck_trailer_large_A.pcx 66 370 09 20 26 -14 -7
 2014 sprites/pcx/standard_trailers/mining_truck_trailer_large_A.pcx 98 370 01 16 36 -14 -8
 2015 sprites/pcx/standard_trailers/mining_truck_trailer_large_A.pcx 146 370 09 20 26 -10 -8
 2016 sprites/pcx/standard_trailers/mining_truck_trailer_large_A.pcx 178 370 01 24 12 -9 -16
 2017 sprites/pcx/standard_trailers/mining_truck_trailer_large_A.pcx 210 370 09 20 26 -17 -8
 2018 sprites/pcx/standard_trailers/mining_truck_trailer_large_A.pcx 242 370 01 16 36 -26 -9
 2019 sprites/pcx/standard_trailers/mining_truck_trailer_large_A.pcx 290 370 09 20 26 -10 -10
  // Large belly dump A (rear wheels only) - grey, loading
 2020 sprites/pcx/standard_trailers/mining_truck_trailer_large_A.pcx 34 90 01 24 12 -3 -16
 2021 sprites/pcx/standard_trailers/mining_truck_trailer_large_A.pcx 66 90 09 20 26 -14 -7
 2022 sprites/pcx/standard_trailers/mining_truck_trailer_large_A.pcx 98 90 01 16 36 -14 -8
 2023 sprites/pcx/standard_trailers/mining_truck_trailer_large_A.pcx 146 90 09 20 26 -10 -8
 2024 sprites/pcx/standard_trailers/mining_truck_trailer_large_A.pcx 178 90 01 24 12 -9 -16
 2025 sprites/pcx/standard_trailers/mining_truck_trailer_large_A.pcx 210 90 09 20 26 -17 -8
 2026 sprites/pcx/standard_trailers/mining_truck_trailer_large_A.pcx 242 90 01 16 36 -26 -9
 2027 sprites/pcx/standard_trailers/mining_truck_trailer_large_A.pcx 290 90 09 20 26 -10 -10
  // Large belly dump A (rear wheels only) - grey, loaded
 2028 sprites/pcx/standard_trailers/mining_truck_trailer_large_A.pcx 34 130 01 24 12 -3 -16
 2029 sprites/pcx/standard_trailers/mining_truck_trailer_large_A.pcx 66 130 09 20 26 -14 -7
 2030 sprites/pcx/standard_trailers/mining_truck_trailer_large_A.pcx 98 130 01 16 36 -14 -8
 2031 sprites/pcx/standard_trailers/mining_truck_trailer_large_A.pcx 146 130 09 20 26 -10 -8
 2032 sprites/pcx/standard_trailers/mining_truck_trailer_large_A.pcx 178 130 01 24 12 -9 -16
 2033 sprites/pcx/standard_trailers/mining_truck_trailer_large_A.pcx 210 130 09 20 26 -17 -8
 2034 sprites/pcx/standard_trailers/mining_truck_trailer_large_A.pcx 242 130 01 16 36 -26 -9
 2035 sprites/pcx/standard_trailers/mining_truck_trailer_large_A.pcx 290 130 09 20 26 -10 -10
 // Action 2 ID schema: 0 / 1 = rear wheels only, 2 / 3 = with front wheels  
 2036 * 17	 02 01 08  03 03    00 00  01 00  02 00    00 00  01 00  02 00 // iron ore
 2037 * 17	 02 01 01  03 03    00 00  03 00  04 00    00 00  03 00  04 00 // coal
 2038 * 17	 02 01 06  03 03    00 00  05 00  06 00    00 00  05 00  06 00 // sand
 2039 * 17	 02 01 0E  03 03    00 00  07 00  08 00    00 00  07 00  08 00 // brown 
 2040 * 17	 02 01 17  03 03    00 00  09 00  0A 00    00 00  09 00  0A 00 // red
 2041 * 17	 02 01 11  03 03    00 00  0B 00  0C 00    00 00  0B 00  0C 00 // grey
   // Large belly dump B (with front wheels) - empty
 2042 * 4	 01 01 0D 08
 2043 sprites/pcx/standard_trailers/mining_truck_trailer_large_B.pcx 34 50 01 24 12 -3 -16
 2044 sprites/pcx/standard_trailers/mining_truck_trailer_large_B.pcx 66 50 09 20 26 -14 -7
 2045 sprites/pcx/standard_trailers/mining_truck_trailer_large_B.pcx 98 50 01 16 36 -14 -8
 2046 sprites/pcx/standard_trailers/mining_truck_trailer_large_B.pcx 146 50 09 20 26 -10 -8
 2047 sprites/pcx/standard_trailers/mining_truck_trailer_large_B.pcx 178 50 01 24 12 -9 -16
 2048 sprites/pcx/standard_trailers/mining_truck_trailer_large_B.pcx 210 50 09 20 26 -17 -8
 2049 sprites/pcx/standard_trailers/mining_truck_trailer_large_B.pcx 242 50 01 16 36 -26 -9
 2050 sprites/pcx/standard_trailers/mining_truck_trailer_large_B.pcx 290 50 09 20 26 -10 -10
   // Large belly dump B (with front wheels) - iron ore, loading
 2051 sprites/pcx/standard_trailers/mining_truck_trailer_large_B.pcx 34 490 01 24 12 -3 -16
 2052 sprites/pcx/standard_trailers/mining_truck_trailer_large_B.pcx 66 490 09 20 20 -14 -7
 2053 sprites/pcx/standard_trailers/mining_truck_trailer_large_B.pcx 98 490 01 16 36 -14 -8
 2054 sprites/pcx/standard_trailers/mining_truck_trailer_large_B.pcx 146 490 09 20 26 -10 -8
 2055 sprites/pcx/standard_trailers/mining_truck_trailer_large_B.pcx 178 490 01 24 12 -9 -16
 2056 sprites/pcx/standard_trailers/mining_truck_trailer_large_B.pcx 210 490 09 20 26 -17 -8
 2057 sprites/pcx/standard_trailers/mining_truck_trailer_large_B.pcx 242 490 01 16 36 -26 -9
 2058 sprites/pcx/standard_trailers/mining_truck_trailer_large_B.pcx 290 490 09 20 26 -10 -10
   // Large belly dump B (with front wheels) - iron ore, loaded
 2059 sprites/pcx/standard_trailers/mining_truck_trailer_large_B.pcx 34 530 01 24 12 -3 -16
 2060 sprites/pcx/standard_trailers/mining_truck_trailer_large_B.pcx 66 530 09 20 20 -14 -7
 2061 sprites/pcx/standard_trailers/mining_truck_trailer_large_B.pcx 98 530 01 16 36 -14 -8
 2062 sprites/pcx/standard_trailers/mining_truck_trailer_large_B.pcx 146 530 09 20 26 -10 -8
 2063 sprites/pcx/standard_trailers/mining_truck_trailer_large_B.pcx 178 530 01 24 12 -9 -16
 2064 sprites/pcx/standard_trailers/mining_truck_trailer_large_B.pcx 210 530 09 20 26 -17 -8
 2065 sprites/pcx/standard_trailers/mining_truck_trailer_large_B.pcx 242 530 01 16 36 -26 -9
 2066 sprites/pcx/standard_trailers/mining_truck_trailer_large_B.pcx 290 530 09 20 26 -10 -10
   // Large belly dump B (with front wheels) - coal, loading
 2067 sprites/pcx/standard_trailers/mining_truck_trailer_large_B.pcx 34 170 01 24 12 -3 -16
 2068 sprites/pcx/standard_trailers/mining_truck_trailer_large_B.pcx 66 170 09 20 26 -14 -7
 2069 sprites/pcx/standard_trailers/mining_truck_trailer_large_B.pcx 98 170 01 16 36 -14 -8
 2070 sprites/pcx/standard_trailers/mining_truck_trailer_large_B.pcx 146 170 09 20 26 -10 -8
 2071 sprites/pcx/standard_trailers/mining_truck_trailer_large_B.pcx 178 170 01 24 12 -9 -16
 2072 sprites/pcx/standard_trailers/mining_truck_trailer_large_B.pcx 210 170 09 20 26 -17 -8
 2073 sprites/pcx/standard_trailers/mining_truck_trailer_large_B.pcx 242 170 01 16 36 -26 -9
 2074 sprites/pcx/standard_trailers/mining_truck_trailer_large_B.pcx 290 170 09 20 26 -10 -10
   // Large belly dump B (with front wheels) - coal, loaded
 2075 sprites/pcx/standard_trailers/mining_truck_trailer_large_B.pcx 34 210 01 24 12 -3 -16
 2076 sprites/pcx/standard_trailers/mining_truck_trailer_large_B.pcx 66 210 09 20 26 -14 -7
 2077 sprites/pcx/standard_trailers/mining_truck_trailer_large_B.pcx 98 210 01 16 36 -14 -8
 2078 sprites/pcx/standard_trailers/mining_truck_trailer_large_B.pcx 146 210 09 20 26 -10 -8
 2079 sprites/pcx/standard_trailers/mining_truck_trailer_large_B.pcx 178 210 01 24 12 -9 -16
 2080 sprites/pcx/standard_trailers/mining_truck_trailer_large_B.pcx 210 210 09 20 26 -17 -8
 2081 sprites/pcx/standard_trailers/mining_truck_trailer_large_B.pcx 242 210 01 16 36 -26 -9
 2082 sprites/pcx/standard_trailers/mining_truck_trailer_large_B.pcx 290 210 09 20 26 -10 -10
   // Large belly dump B (with front wheels) - sand, loading
 2083 sprites/pcx/standard_trailers/mining_truck_trailer_large_B.pcx 34 250 01 24 12 -3 -16
 2084 sprites/pcx/standard_trailers/mining_truck_trailer_large_B.pcx 66 250 09 20 26 -14 -7
 2085 sprites/pcx/standard_trailers/mining_truck_trailer_large_B.pcx 98 250 01 16 36 -14 -8
 2086 sprites/pcx/standard_trailers/mining_truck_trailer_large_B.pcx 146 250 09 20 26 -10 -8
 2087 sprites/pcx/standard_trailers/mining_truck_trailer_large_B.pcx 178 250 01 24 12 -9 -16
 2088 sprites/pcx/standard_trailers/mining_truck_trailer_large_B.pcx 210 250 09 20 26 -17 -8
 2089 sprites/pcx/standard_trailers/mining_truck_trailer_large_B.pcx 242 250 01 16 36 -26 -9
 2090 sprites/pcx/standard_trailers/mining_truck_trailer_large_B.pcx 290 250 09 20 26 -10 -10
  // Large belly dump B (with front wheels) - sand, loaded
 2091 sprites/pcx/standard_trailers/mining_truck_trailer_large_B.pcx 34 290 01 24 12 -3 -16
 2092 sprites/pcx/standard_trailers/mining_truck_trailer_large_B.pcx 66 290 09 20 26 -14 -7
 2093 sprites/pcx/standard_trailers/mining_truck_trailer_large_B.pcx 98 290 01 16 36 -14 -8
 2094 sprites/pcx/standard_trailers/mining_truck_trailer_large_B.pcx 146 290 09 20 26 -10 -8
 2095 sprites/pcx/standard_trailers/mining_truck_trailer_large_B.pcx 178 290 01 24 12 -9 -16
 2096 sprites/pcx/standard_trailers/mining_truck_trailer_large_B.pcx 210 290 09 20 26 -17 -8
 2097 sprites/pcx/standard_trailers/mining_truck_trailer_large_B.pcx 242 290 01 16 36 -26 -9
 2098 sprites/pcx/standard_trailers/mining_truck_trailer_large_B.pcx 290 290 09 20 26 -10 -10
  // Large belly dump B (with front wheels) - brown, loading
 2099 sprites/pcx/standard_trailers/mining_truck_trailer_large_B.pcx 34 410 01 24 12 -3 -16
 2100 sprites/pcx/standard_trailers/mining_truck_trailer_large_B.pcx 66 410 09 20 26 -14 -7
 2101 sprites/pcx/standard_trailers/mining_truck_trailer_large_B.pcx 98 410 01 16 36 -14 -8
 2102 sprites/pcx/standard_trailers/mining_truck_trailer_large_B.pcx 146 410 09 20 26 -10 -8
 2103 sprites/pcx/standard_trailers/mining_truck_trailer_large_B.pcx 178 410 01 24 12 -9 -16
 2104 sprites/pcx/standard_trailers/mining_truck_trailer_large_B.pcx 210 410 09 20 26 -17 -8
 2105 sprites/pcx/standard_trailers/mining_truck_trailer_large_B.pcx 242 410 01 16 36 -26 -9
 2106 sprites/pcx/standard_trailers/mining_truck_trailer_large_B.pcx 290 410 09 20 26 -10 -10
  // Large belly dump B (with front wheels) - brown, loaded
 2107 sprites/pcx/standard_trailers/mining_truck_trailer_large_B.pcx 34 450 01 24 12 -3 -16
 2108 sprites/pcx/standard_trailers/mining_truck_trailer_large_B.pcx 66 450 09 20 26 -14 -7
 2109 sprites/pcx/standard_trailers/mining_truck_trailer_large_B.pcx 98 450 01 16 36 -14 -8
 2110 sprites/pcx/standard_trailers/mining_truck_trailer_large_B.pcx 146 450 09 20 26 -10 -8
 2111 sprites/pcx/standard_trailers/mining_truck_trailer_large_B.pcx 178 450 01 24 12 -9 -16
 2112 sprites/pcx/standard_trailers/mining_truck_trailer_large_B.pcx 210 450 09 20 26 -17 -8
 2113 sprites/pcx/standard_trailers/mining_truck_trailer_large_B.pcx 242 450 01 16 36 -26 -9
 2114 sprites/pcx/standard_trailers/mining_truck_trailer_large_B.pcx 290 450 09 20 26 -10 -10
  // Large belly dump B (with front wheels) - red, loading
 2115 sprites/pcx/standard_trailers/mining_truck_trailer_large_B.pcx 34 370 01 24 12 -3 -16
 2116 sprites/pcx/standard_trailers/mining_truck_trailer_large_B.pcx 66 370 09 20 26 -14 -7
 2117 sprites/pcx/standard_trailers/mining_truck_trailer_large_B.pcx 98 370 01 16 36 -14 -8
 2118 sprites/pcx/standard_trailers/mining_truck_trailer_large_B.pcx 146 370 09 20 26 -10 -8
 2119 sprites/pcx/standard_trailers/mining_truck_trailer_large_B.pcx 178 370 01 24 12 -9 -16
 2120 sprites/pcx/standard_trailers/mining_truck_trailer_large_B.pcx 210 370 09 20 26 -17 -8
 2121 sprites/pcx/standard_trailers/mining_truck_trailer_large_B.pcx 242 370 01 16 36 -26 -9
 2122 sprites/pcx/standard_trailers/mining_truck_trailer_large_B.pcx 290 370 09 20 26 -10 -10
  // Large belly dump B (with front wheels) - red, loaded
 2123 sprites/pcx/standard_trailers/mining_truck_trailer_large_B.pcx 34 370 01 24 12 -3 -16
 2124 sprites/pcx/standard_trailers/mining_truck_trailer_large_B.pcx 66 370 09 20 26 -14 -7
 2125 sprites/pcx/standard_trailers/mining_truck_trailer_large_B.pcx 98 370 01 16 36 -14 -8
 2126 sprites/pcx/standard_trailers/mining_truck_trailer_large_B.pcx 146 370 09 20 26 -10 -8
 2127 sprites/pcx/standard_trailers/mining_truck_trailer_large_B.pcx 178 370 01 24 12 -9 -16
 2128 sprites/pcx/standard_trailers/mining_truck_trailer_large_B.pcx 210 370 09 20 26 -17 -8
 2129 sprites/pcx/standard_trailers/mining_truck_trailer_large_B.pcx 242 370 01 16 36 -26 -9
 2130 sprites/pcx/standard_trailers/mining_truck_trailer_large_B.pcx 290 370 09 20 26 -10 -10
  // Large belly dump B (with front wheels) - grey, loading
 2131 sprites/pcx/standard_trailers/mining_truck_trailer_large_B.pcx 34 90 01 24 12 -3 -16
 2132 sprites/pcx/standard_trailers/mining_truck_trailer_large_B.pcx 66 90 09 20 26 -14 -7
 2133 sprites/pcx/standard_trailers/mining_truck_trailer_large_B.pcx 98 90 01 16 36 -14 -8
 2134 sprites/pcx/standard_trailers/mining_truck_trailer_large_B.pcx 146 90 09 20 26 -10 -8
 2135 sprites/pcx/standard_trailers/mining_truck_trailer_large_B.pcx 178 90 01 24 12 -9 -16
 2136 sprites/pcx/standard_trailers/mining_truck_trailer_large_B.pcx 210 90 09 20 26 -17 -8
 2137 sprites/pcx/standard_trailers/mining_truck_trailer_large_B.pcx 242 90 01 16 36 -26 -9
 2138 sprites/pcx/standard_trailers/mining_truck_trailer_large_B.pcx 290 90 09 20 26 -10 -10
  // Large belly dump B (with front wheels) - grey, loaded
 2139 sprites/pcx/standard_trailers/mining_truck_trailer_large_B.pcx 34 130 01 24 12 -3 -16
 2140 sprites/pcx/standard_trailers/mining_truck_trailer_large_B.pcx 66 130 09 20 26 -14 -7
 2141 sprites/pcx/standard_trailers/mining_truck_trailer_large_B.pcx 98 130 01 16 36 -14 -8
 2142 sprites/pcx/standard_trailers/mining_truck_trailer_large_B.pcx 146 130 09 20 26 -10 -8
 2143 sprites/pcx/standard_trailers/mining_truck_trailer_large_B.pcx 178 130 01 24 12 -9 -16
 2144 sprites/pcx/standard_trailers/mining_truck_trailer_large_B.pcx 210 130 09 20 26 -17 -8
 2145 sprites/pcx/standard_trailers/mining_truck_trailer_large_B.pcx 242 130 01 16 36 -26 -9
 2146 sprites/pcx/standard_trailers/mining_truck_trailer_large_B.pcx 290 130 09 20 26 -10 -10
 // Action 2 ID schema: 0 / 1 = rear wheels only, 2 / 3 = with front wheels  
 2147 * 17	 02 01 28  03 03    00 00  01 00  02 00    00 00  01 00  02 00 // iron ore
 2148 * 17	 02 01 21  03 03    00 00  03 00  04 00    00 00  03 00  04 00 // coal
 2149 * 17	 02 01 26  03 03    00 00  05 00  06 00    00 00  05 00  06 00 // grain (not used - left here for ease of copy and paste)
 2150 * 17	 02 01 2E  03 03    00 00  07 00  08 00    00 00  07 00  08 00 // brown 
 2151 * 17	 02 01 37  03 03    00 00  09 00  0A 00    00 00  09 00  0A 00 // red
 2152 * 17	 02 01 31  03 03    00 00  0B 00  0C 00    00 00  0B 00  0C 00 // grey
 // Rough order of business here:
    // assume belly dumps in position 1 in consist are behind a mining hauler (in position 0) and don't need front wheels.
    // otherwise use front wheel sprites
 2153 * 26	 02 01 CD // choose belly dump A sprites according to cargo slot (in cargo translation tt)
                 81 47 00 FF // var 47 in format ccccwwtt where I want tt 
                 06 // range
                  01 00  01 01 // COAL (format is: ID | cargo) 
                  08 00  08 08 // IORE
<<<<<<< local
                  17 00  0E 0E // CORE
                  17 00  18 18 // AORE (bauxite)
=======
                  0E 00  0E 0E // CORE
                  0E 00  18 18 // AORE (bauxite)
>>>>>>> other
                  06 00  19 19 // SAND
                  11 00  1A 1A // GRVL
                 11 00 // default 
 2154 * 26	 02 01 CC  // choose belly dump B sprites according to cargo slot (in cargo translation tt)
                 81 47 00 FF // var 47 in format ccccwwtt where I want tt 
                 06 // range
                  21 00  01 01 // COAL (format is: ID | cargo) 
                  28 00  08 08 // IORE
<<<<<<< local
                  37 00  0E 0E // CORE
                  37 00  18 18 // AORE (bauxite)
=======
                  2E 00  0E 0E // CORE
                  2E 00  18 18 // AORE (bauxite)
>>>>>>> other
                  26 00  19 19 // SAND
                  31 00  1A 1A // GRVL
<<<<<<< local
                 31 00 // default
=======
                 31 00 // default 
>>>>>>> other
 2155 * 14	 02 01 CA  // choose belly dump sprites according to position in consist 
                 81 40 00 FF // var 40 in format 00nnbbff where I want ff 
                 01 // range
                  CD 00 01 01 // vehicle is in position 1 in consist (second vehicle)
                 CC 00 // default 
 2156 * 7	 03 01 01 07  // Action 3
      00  // Number of different cargo types to support  
      CA 00 // default
  // ----------------- end of Belly Dump Trailers for Mining Trucks -------------- //


  // --------------------------- Dump trucks / Mining Haulers --------------------- //

  // Mt. McKinley Dump Truck  30t		1954-1972	35mph
 2157 * 67	 00 01 19 01 D0
    00 \w1-1-1920     // intro date (min value: 1-1-1920)
    02 20             // reliability
    03 19             // vehicle life
    04 19             // class life
    06 0F             // climate
    07 05             // load amount
    08 \b112          // speed in mph * 3.2
    09 50             // running cost factor
    0A 48 4C 00 00        // running cost base
    0E FF             // sprite ID
    0F \b30           // capacity
    10 FF             // cargo type 
    11 5D             // cost factor
    12 19             // sound effect
    13 \b40           // power in 10 hp
    14 \b80           // weight in 1/4 tons
    15 \b28           // speed in mph * 0.8
    16 40 00 00 28    // Bit mask of cargo types available for refitting
    // flips 1D / 1E values: excludes grain, wheat, maize
    17 00             // Callback flags bit mask
    1A 00             // Refit cost, using 25% of the purchase price cost base
    1B 00             // Retire vehicle early, this many years before the end of phase 2
    1C 02             // Miscellaneous vehicle flags 01 = tram, 02 = use 2CC
    1D 10 00          // Refittable cargo classes
    1E EF 03          // Non-refittable cargo classes
    1F 93 E4 0A 00    // Long format introduction date
 2158 * 29	 04 01 7F 01 D0 "Mt. McKinley Dump Truck" 00
 2159 * 4	 01 01 0F 08
  // Mt. McKinley 30t dump truck empty 
 2160 sprites/pcx/mining_trucks/1960s_dump_truck_2_axle.pcx 34 10 01 24 12 -5 -13
 2161 sprites/pcx/mining_trucks/1960s_dump_truck_2_axle.pcx 66 10 09 20 26 -17 -8
 2162 sprites/pcx/mining_trucks/1960s_dump_truck_2_axle.pcx 98 10 01 16 36 -18 -8
 2163 sprites/pcx/mining_trucks/1960s_dump_truck_2_axle.pcx 146 10 09 20 26 -11 -9
 2164 sprites/pcx/mining_trucks/1960s_dump_truck_2_axle.pcx 178 10 01 24 12 -5 -13
 2165 sprites/pcx/mining_trucks/1960s_dump_truck_2_axle.pcx 210 10 09 20 26 -17 -9
 2166 sprites/pcx/mining_trucks/1960s_dump_truck_2_axle.pcx 242 10 01 16 36 -28 -9
 2167 sprites/pcx/mining_trucks/1960s_dump_truck_2_axle.pcx 290 10 09 20 26 -9 -10
  // Mt. McKinley 30t dump truck coal partial
 2168 sprites/pcx/mining_trucks/1960s_dump_truck_2_axle.pcx 34 50 01 24 12 -5 -13
 2169 sprites/pcx/mining_trucks/1960s_dump_truck_2_axle.pcx 66 50 09 20 26 -17 -8
 2170 sprites/pcx/mining_trucks/1960s_dump_truck_2_axle.pcx 98 50 01 16 36 -18 -8
 2171 sprites/pcx/mining_trucks/1960s_dump_truck_2_axle.pcx 146 50 09 20 26 -11 -9
 2172 sprites/pcx/mining_trucks/1960s_dump_truck_2_axle.pcx 178 50 01 24 12 -5 -13
 2173 sprites/pcx/mining_trucks/1960s_dump_truck_2_axle.pcx 210 50 09 20 26 -17 -9
 2174 sprites/pcx/mining_trucks/1960s_dump_truck_2_axle.pcx 242 50 01 16 36 -28 -9
 2175 sprites/pcx/mining_trucks/1960s_dump_truck_2_axle.pcx 290 50 09 20 26 -9 -10
    // Mt. McKinley 30t dump truck coal 
 2176 sprites/pcx/mining_trucks/1960s_dump_truck_2_axle.pcx 34 90 01 24 12 -5 -13
 2177 sprites/pcx/mining_trucks/1960s_dump_truck_2_axle.pcx 66 90 09 20 26 -17 -8
 2178 sprites/pcx/mining_trucks/1960s_dump_truck_2_axle.pcx 98 90 01 16 36 -18 -8
 2179 sprites/pcx/mining_trucks/1960s_dump_truck_2_axle.pcx 146 90 09 20 26 -11 -9
 2180 sprites/pcx/mining_trucks/1960s_dump_truck_2_axle.pcx 178 90 01 24 12 -5 -13
 2181 sprites/pcx/mining_trucks/1960s_dump_truck_2_axle.pcx 210 90 09 20 26 -17 -9
 2182 sprites/pcx/mining_trucks/1960s_dump_truck_2_axle.pcx 242 90 01 16 36 -28 -9
 2183 sprites/pcx/mining_trucks/1960s_dump_truck_2_axle.pcx 290 90 09 20 26 -9 -10
  // Mt. McKinley 30t dump truck iron partial
 2184 sprites/pcx/mining_trucks/1960s_dump_truck_2_axle.pcx 34 130 01 24 12 -5 -13
 2185 sprites/pcx/mining_trucks/1960s_dump_truck_2_axle.pcx 66 130 09 20 26 -17 -8
 2186 sprites/pcx/mining_trucks/1960s_dump_truck_2_axle.pcx 98 130 01 16 36 -18 -8
 2187 sprites/pcx/mining_trucks/1960s_dump_truck_2_axle.pcx 146 130 09 20 26 -11 -9
 2188 sprites/pcx/mining_trucks/1960s_dump_truck_2_axle.pcx 178 130 01 24 12 -5 -13
 2189 sprites/pcx/mining_trucks/1960s_dump_truck_2_axle.pcx 210 130 09 20 26 -17 -9
 2190 sprites/pcx/mining_trucks/1960s_dump_truck_2_axle.pcx 242 130 01 16 36 -28 -9
 2191 sprites/pcx/mining_trucks/1960s_dump_truck_2_axle.pcx 290 130 09 20 26 -9 -10
  // Mt. McKinley 30t dump truck iron 
 2192 sprites/pcx/mining_trucks/1960s_dump_truck_2_axle.pcx 34 170 01 24 12 -5 -13
 2193 sprites/pcx/mining_trucks/1960s_dump_truck_2_axle.pcx 66 170 09 20 26 -17 -8
 2194 sprites/pcx/mining_trucks/1960s_dump_truck_2_axle.pcx 98 170 01 16 36 -18 -8
 2195 sprites/pcx/mining_trucks/1960s_dump_truck_2_axle.pcx 146 170 09 20 26 -11 -9
 2196 sprites/pcx/mining_trucks/1960s_dump_truck_2_axle.pcx 178 170 01 24 12 -5 -13
 2197 sprites/pcx/mining_trucks/1960s_dump_truck_2_axle.pcx 210 170 09 20 26 -17 -9
 2198 sprites/pcx/mining_trucks/1960s_dump_truck_2_axle.pcx 242 170 01 16 36 -28 -9
 2199 sprites/pcx/mining_trucks/1960s_dump_truck_2_axle.pcx 290 170 09 20 26 -9 -10
  // Mt. McKinley 30t dump truck white partial
 2200 sprites/pcx/mining_trucks/1960s_dump_truck_2_axle.pcx 34 210 01 24 12 -5 -13
 2201 sprites/pcx/mining_trucks/1960s_dump_truck_2_axle.pcx 66 210 09 20 26 -17 -8
 2202 sprites/pcx/mining_trucks/1960s_dump_truck_2_axle.pcx 98 210 01 16 36 -18 -8
 2203 sprites/pcx/mining_trucks/1960s_dump_truck_2_axle.pcx 146 210 09 20 26 -11 -9
 2204 sprites/pcx/mining_trucks/1960s_dump_truck_2_axle.pcx 178 210 01 24 12 -5 -13
 2205 sprites/pcx/mining_trucks/1960s_dump_truck_2_axle.pcx 210 210 09 20 26 -17 -9
 2206 sprites/pcx/mining_trucks/1960s_dump_truck_2_axle.pcx 242 210 01 16 36 -28 -9
 2207 sprites/pcx/mining_trucks/1960s_dump_truck_2_axle.pcx 290 210 09 20 26 -9 -10
  // Mt. McKinley 30t dump truck white 
 2208 sprites/pcx/mining_trucks/1960s_dump_truck_2_axle.pcx 34 250 01 24 12 -5 -13
 2209 sprites/pcx/mining_trucks/1960s_dump_truck_2_axle.pcx 66 250 09 20 26 -17 -8
 2210 sprites/pcx/mining_trucks/1960s_dump_truck_2_axle.pcx 98 250 01 16 36 -18 -8
 2211 sprites/pcx/mining_trucks/1960s_dump_truck_2_axle.pcx 146 250 09 20 26 -11 -9
 2212 sprites/pcx/mining_trucks/1960s_dump_truck_2_axle.pcx 178 250 01 24 12 -5 -13
 2213 sprites/pcx/mining_trucks/1960s_dump_truck_2_axle.pcx 210 250 09 20 26 -17 -9
 2214 sprites/pcx/mining_trucks/1960s_dump_truck_2_axle.pcx 242 250 01 16 36 -28 -9
 2215 sprites/pcx/mining_trucks/1960s_dump_truck_2_axle.pcx 290 250 09 20 26 -9 -10
  // Mt. McKinley 30t dump truck brown partial
 2216 sprites/pcx/mining_trucks/1960s_dump_truck_2_axle.pcx 34 290 01 24 12 -5 -13
 2217 sprites/pcx/mining_trucks/1960s_dump_truck_2_axle.pcx 66 290 09 20 26 -17 -8
 2218 sprites/pcx/mining_trucks/1960s_dump_truck_2_axle.pcx 98 290 01 16 36 -18 -8
 2219 sprites/pcx/mining_trucks/1960s_dump_truck_2_axle.pcx 146 290 09 20 26 -11 -9
 2220 sprites/pcx/mining_trucks/1960s_dump_truck_2_axle.pcx 178 290 01 24 12 -5 -13
 2221 sprites/pcx/mining_trucks/1960s_dump_truck_2_axle.pcx 290 210 09 20 26 -17 -9
 2222 sprites/pcx/mining_trucks/1960s_dump_truck_2_axle.pcx 242 290 01 16 36 -28 -9
 2223 sprites/pcx/mining_trucks/1960s_dump_truck_2_axle.pcx 290 290 09 20 26 -9 -10
  // Mt. McKinley 30t dump truck brown 
 2224 sprites/pcx/mining_trucks/1960s_dump_truck_2_axle.pcx 34 330 01 24 12 -5 -13
 2225 sprites/pcx/mining_trucks/1960s_dump_truck_2_axle.pcx 66 330 09 20 26 -17 -8
 2226 sprites/pcx/mining_trucks/1960s_dump_truck_2_axle.pcx 98 330 01 16 36 -18 -8
 2227 sprites/pcx/mining_trucks/1960s_dump_truck_2_axle.pcx 146 330 09 20 26 -11 -9
 2228 sprites/pcx/mining_trucks/1960s_dump_truck_2_axle.pcx 178 330 01 24 12 -5 -13
 2229 sprites/pcx/mining_trucks/1960s_dump_truck_2_axle.pcx 210 330 09 20 26 -17 -9
 2230 sprites/pcx/mining_trucks/1960s_dump_truck_2_axle.pcx 242 330 01 16 36 -28 -9
 2231 sprites/pcx/mining_trucks/1960s_dump_truck_2_axle.pcx 290 330 09 20 26 -9 -10
  // Mt. McKinley 30t dump truck grey partial
 2232 sprites/pcx/mining_trucks/1960s_dump_truck_2_axle.pcx 34 370 01 24 12 -5 -13
 2233 sprites/pcx/mining_trucks/1960s_dump_truck_2_axle.pcx 66 370 09 20 26 -17 -8
 2234 sprites/pcx/mining_trucks/1960s_dump_truck_2_axle.pcx 98 370 01 16 36 -18 -8
 2235 sprites/pcx/mining_trucks/1960s_dump_truck_2_axle.pcx 146 370 09 20 26 -11 -9
 2236 sprites/pcx/mining_trucks/1960s_dump_truck_2_axle.pcx 178 370 01 24 12 -5 -13
 2237 sprites/pcx/mining_trucks/1960s_dump_truck_2_axle.pcx 210 370 09 20 26 -17 -9
 2238 sprites/pcx/mining_trucks/1960s_dump_truck_2_axle.pcx 242 370 01 16 36 -28 -9
 2239 sprites/pcx/mining_trucks/1960s_dump_truck_2_axle.pcx 290 370 09 20 26 -9 -10
  // Mt. McKinley 30t dump truck grey
 2240 sprites/pcx/mining_trucks/1960s_dump_truck_2_axle.pcx 34 410 01 24 12 -5 -13
 2241 sprites/pcx/mining_trucks/1960s_dump_truck_2_axle.pcx 66 410 09 20 26 -17 -8
 2242 sprites/pcx/mining_trucks/1960s_dump_truck_2_axle.pcx 98 410 01 16 36 -18 -8
 2243 sprites/pcx/mining_trucks/1960s_dump_truck_2_axle.pcx 146 410 09 20 26 -11 -9
 2244 sprites/pcx/mining_trucks/1960s_dump_truck_2_axle.pcx 178 410 01 24 12 -5 -13
 2245 sprites/pcx/mining_trucks/1960s_dump_truck_2_axle.pcx 210 410 09 20 26 -17 -9
 2246 sprites/pcx/mining_trucks/1960s_dump_truck_2_axle.pcx 242 410 01 16 36 -28 -9
 2247 sprites/pcx/mining_trucks/1960s_dump_truck_2_axle.pcx 290 410 09 20 26 -9 -10
 // Mt. McKinley 30t dump truck red partial
 2248 sprites/pcx/mining_trucks/1960s_dump_truck_2_axle.pcx 34 450 01 24 12 -5 -13
 2249 sprites/pcx/mining_trucks/1960s_dump_truck_2_axle.pcx 66 450 09 20 26 -17 -8
 2250 sprites/pcx/mining_trucks/1960s_dump_truck_2_axle.pcx 98 450 01 16 36 -18 -8
 2251 sprites/pcx/mining_trucks/1960s_dump_truck_2_axle.pcx 146 450 09 20 26 -11 -9
 2252 sprites/pcx/mining_trucks/1960s_dump_truck_2_axle.pcx 178 450 01 24 12 -5 -13
 2253 sprites/pcx/mining_trucks/1960s_dump_truck_2_axle.pcx 210 450 09 20 26 -17 -9
 2254 sprites/pcx/mining_trucks/1960s_dump_truck_2_axle.pcx 242 450 01 16 36 -28 -9
 2255 sprites/pcx/mining_trucks/1960s_dump_truck_2_axle.pcx 290 450 09 20 26 -9 -10
  // Mt. McKinley 30t dump truck red
 2256 sprites/pcx/mining_trucks/1960s_dump_truck_2_axle.pcx 34 490 01 24 12 -5 -13
 2257 sprites/pcx/mining_trucks/1960s_dump_truck_2_axle.pcx 66 490 09 20 26 -17 -8
 2258 sprites/pcx/mining_trucks/1960s_dump_truck_2_axle.pcx 98 490 01 16 36 -18 -8
 2259 sprites/pcx/mining_trucks/1960s_dump_truck_2_axle.pcx 146 490 09 20 26 -11 -9
 2260 sprites/pcx/mining_trucks/1960s_dump_truck_2_axle.pcx 178 490 01 24 12 -5 -13
 2261 sprites/pcx/mining_trucks/1960s_dump_truck_2_axle.pcx 210 490 09 20 26 -17 -9
 2262 sprites/pcx/mining_trucks/1960s_dump_truck_2_axle.pcx 242 490 01 16 36 -28 -9
 2263 sprites/pcx/mining_trucks/1960s_dump_truck_2_axle.pcx 290 490 09 20 26 -9 -10
 // Mt. McKinley 30t dump truck sand partial
 2264 sprites/pcx/mining_trucks/1960s_dump_truck_2_axle.pcx 34 530 01 24 12 -5 -13
 2265 sprites/pcx/mining_trucks/1960s_dump_truck_2_axle.pcx 66 530 09 20 26 -17 -8
 2266 sprites/pcx/mining_trucks/1960s_dump_truck_2_axle.pcx 98 530 01 16 36 -18 -8
 2267 sprites/pcx/mining_trucks/1960s_dump_truck_2_axle.pcx 146 530 09 20 26 -11 -9
 2268 sprites/pcx/mining_trucks/1960s_dump_truck_2_axle.pcx 178 530 01 24 12 -5 -13
 2269 sprites/pcx/mining_trucks/1960s_dump_truck_2_axle.pcx 210 530 09 20 26 -17 -9
 2270 sprites/pcx/mining_trucks/1960s_dump_truck_2_axle.pcx 242 530 01 16 36 -28 -9
 2271 sprites/pcx/mining_trucks/1960s_dump_truck_2_axle.pcx 290 530 09 20 26 -9 -10
  // Mt. McKinley 30t dump truck sand
 2272 sprites/pcx/mining_trucks/1960s_dump_truck_2_axle.pcx 34 570 01 24 12 -5 -13
 2273 sprites/pcx/mining_trucks/1960s_dump_truck_2_axle.pcx 66 570 09 20 26 -17 -8
 2274 sprites/pcx/mining_trucks/1960s_dump_truck_2_axle.pcx 98 570 01 16 36 -18 -8
 2275 sprites/pcx/mining_trucks/1960s_dump_truck_2_axle.pcx 146 570 09 20 26 -11 -9
 2276 sprites/pcx/mining_trucks/1960s_dump_truck_2_axle.pcx 178 570 01 24 12 -5 -13
 2277 sprites/pcx/mining_trucks/1960s_dump_truck_2_axle.pcx 210 570 09 20 26 -17 -9
 2278 sprites/pcx/mining_trucks/1960s_dump_truck_2_axle.pcx 242 570 01 16 36 -28 -9
 2279 sprites/pcx/mining_trucks/1960s_dump_truck_2_axle.pcx 290 570 09 20 26 -9 -10
 2280 * 17	 02 01 A1 03 03  00 00  01 00  02 00    00 00  01 00  02 00  // coal
 2281 * 17	 02 01 A2 03 03  00 00  03 00  04 00    00 00  03 00  04 00  // iron ore
 2282 * 17	 02 01 A3 03 03  00 00  05 00  06 00    00 00  05 00  06 00  // white
 2283 * 17	 02 01 A4 03 03  00 00  07 00  08 00    00 00  07 00  08 00  // brown
 2284 * 17	 02 01 A5 03 03  00 00  09 00  0A 00    00 00  09 00  0A 00  // grey
 2285 * 17	 02 01 A6 03 03  00 00  0B 00  0C 00    00 00  0B 00  0C 00  // red
 2286 * 17	 02 01 A7 03 03  00 00  0D 00  0E 00    00 00  0D 00  0E 00  // sand
 2287 * 4	 01 01 01 04 // buy menu sprites
 2288 * 1	 00
 2289 * 1	 00
 2290 sprites/pcx/mining_trucks/1960s_dump_truck_2_axle.pcx 370 13 01 12 36 -14 -6
 2291 * 1	 00
 2292 * 9	 02 01 AF 01 01  00 00  00 00
 2293 * 28	 03 01 01 D0 // Action 3
    07 // number of cargos
     01 A1 00
     08 A2 00 
     0E A6 00 // CORE
     18 A6 00 // AORE (bauxite)
     19 A7 00 // SAND
     1A A5 00 // GRVL
     FF AF 00 // buy menu sprites
    A5 00 // default sprites

  // Mount Rainier Dump Truck 50t		1960-1981	35mph
 2294 * 67	 00 01 19 01 D1
    00 \w1-1-1920  // intro date (min value: 1-1-1920)
    02 20         // reliability
    03 19         // vehicle life
    04 19         // class life
    06 0F         // climate
    07 05         // load amount
    08 \b112      // speed in mph * 3.2
    09 50         // running cost factor
    0A 48 4C 00 00        // running cost base
    0E FF         // sprite ID
    0F \b50       // capacity
    10 FF         // cargo type 
    11 5D         // cost factor
    12 19         // sound effect
    13 \b60       // power in 10 hp
    14 \b140      // weight in 1/4 tons
    15 \b28       // speed in mph * 0.8
    16 40 00 00 28     // Bit mask of cargo types available for refitting
    // flips 1D / 1E values: excludes grain, wheat, maize
    17 00     // Callback flags bit mask
    1A 00     // Refit cost, using 25% of the purchase price cost base
    1B 00     // Retire vehicle early, this many years before the end of phase 2
    1C 02     // Miscellaneous vehicle flags 01 = tram, 02 = use 2CC
    1D 10 00          // Refittable cargo classes
    1E EF 03          // Non-refittable cargo classes
    1F 72 EC 0A 00    // Long format introduction date
 2295 * 28	 04 01 7F 01 D1 "Mt. Rainier Dump Truck" 00
 2296 * 4	 01 01 0F 08
  // Mount Rainier 50t dump truck empty
 2297 sprites/pcx/mining_trucks/1960s_dump_truck_3_axle.pcx 34 10 01 24 12 -5 -13
 2298 sprites/pcx/mining_trucks/1960s_dump_truck_3_axle.pcx 66 10 09 20 26 -17 -8
 2299 sprites/pcx/mining_trucks/1960s_dump_truck_3_axle.pcx 98 10 01 16 36 -18 -8
 2300 sprites/pcx/mining_trucks/1960s_dump_truck_3_axle.pcx 146 10 09 20 26 -11 -9
 2301 sprites/pcx/mining_trucks/1960s_dump_truck_3_axle.pcx 178 10 01 24 12 -5 -13
 2302 sprites/pcx/mining_trucks/1960s_dump_truck_3_axle.pcx 210 10 09 20 26 -16 -9
 2303 sprites/pcx/mining_trucks/1960s_dump_truck_3_axle.pcx 242 10 01 16 36 -22 -9
 2304 sprites/pcx/mining_trucks/1960s_dump_truck_3_axle.pcx 290 10 09 20 26 -8 -11
  // Mount Rainier 50t dump truck coal partial
 2305 sprites/pcx/mining_trucks/1960s_dump_truck_3_axle.pcx 34 50 01 24 12 -5 -13
 2306 sprites/pcx/mining_trucks/1960s_dump_truck_3_axle.pcx 66 50 09 20 26 -17 -8
 2307 sprites/pcx/mining_trucks/1960s_dump_truck_3_axle.pcx 98 50 01 16 36 -18 -8
 2308 sprites/pcx/mining_trucks/1960s_dump_truck_3_axle.pcx 146 50 09 20 26 -11 -9
 2309 sprites/pcx/mining_trucks/1960s_dump_truck_3_axle.pcx 178 50 01 24 12 -5 -13
 2310 sprites/pcx/mining_trucks/1960s_dump_truck_3_axle.pcx 210 50 09 20 26 -16 -9
 2311 sprites/pcx/mining_trucks/1960s_dump_truck_3_axle.pcx 242 50 01 16 36 -22 -9
 2312 sprites/pcx/mining_trucks/1960s_dump_truck_3_axle.pcx 290 50 09 20 26 -8 -11
  // Mount Rainier 50t dump truck coal
 2313 sprites/pcx/mining_trucks/1960s_dump_truck_3_axle.pcx 34 90 01 24 12 -5 -13
 2314 sprites/pcx/mining_trucks/1960s_dump_truck_3_axle.pcx 66 90 09 20 26 -17 -8
 2315 sprites/pcx/mining_trucks/1960s_dump_truck_3_axle.pcx 98 90 01 16 36 -18 -8
 2316 sprites/pcx/mining_trucks/1960s_dump_truck_3_axle.pcx 146 90 09 20 26 -11 -9
 2317 sprites/pcx/mining_trucks/1960s_dump_truck_3_axle.pcx 178 90 01 24 12 -5 -13
 2318 sprites/pcx/mining_trucks/1960s_dump_truck_3_axle.pcx 210 90 09 20 26 -16 -9
 2319 sprites/pcx/mining_trucks/1960s_dump_truck_3_axle.pcx 242 90 01 16 36 -22 -9
 2320 sprites/pcx/mining_trucks/1960s_dump_truck_3_axle.pcx 290 90 09 20 26 -8 -11
  // Mount Rainier 50t dump truck iron partial
 2321 sprites/pcx/mining_trucks/1960s_dump_truck_3_axle.pcx 34 130 01 24 12 -5 -13
 2322 sprites/pcx/mining_trucks/1960s_dump_truck_3_axle.pcx 66 130 09 20 26 -17 -8
 2323 sprites/pcx/mining_trucks/1960s_dump_truck_3_axle.pcx 98 130 01 16 36 -18 -8
 2324 sprites/pcx/mining_trucks/1960s_dump_truck_3_axle.pcx 146 130 09 20 26 -11 -9
 2325 sprites/pcx/mining_trucks/1960s_dump_truck_3_axle.pcx 178 130 01 24 12 -5 -13
 2326 sprites/pcx/mining_trucks/1960s_dump_truck_3_axle.pcx 210 130 09 20 26 -16 -9
 2327 sprites/pcx/mining_trucks/1960s_dump_truck_3_axle.pcx 242 130 01 16 36 -22 -9
 2328 sprites/pcx/mining_trucks/1960s_dump_truck_3_axle.pcx 290 130 09 20 26 -8 -11
  // Mount Rainier 50t dump truck iron
 2329 sprites/pcx/mining_trucks/1960s_dump_truck_3_axle.pcx 34 170 01 24 12 -5 -13
 2330 sprites/pcx/mining_trucks/1960s_dump_truck_3_axle.pcx 66 170 09 20 26 -17 -8
 2331 sprites/pcx/mining_trucks/1960s_dump_truck_3_axle.pcx 98 170 01 16 36 -18 -8
 2332 sprites/pcx/mining_trucks/1960s_dump_truck_3_axle.pcx 146 170 09 20 26 -11 -9
 2333 sprites/pcx/mining_trucks/1960s_dump_truck_3_axle.pcx 178 170 01 24 12 -5 -13
 2334 sprites/pcx/mining_trucks/1960s_dump_truck_3_axle.pcx 210 170 09 20 26 -16 -9
 2335 sprites/pcx/mining_trucks/1960s_dump_truck_3_axle.pcx 242 170 01 16 36 -22 -9
 2336 sprites/pcx/mining_trucks/1960s_dump_truck_3_axle.pcx 290 170 09 20 26 -8 -11
  // Mount Rainier 50t dump truck white partial
 2337 sprites/pcx/mining_trucks/1960s_dump_truck_3_axle.pcx 34 210 01 24 12 -5 -13
 2338 sprites/pcx/mining_trucks/1960s_dump_truck_3_axle.pcx 66 210 09 20 26 -17 -8
 2339 sprites/pcx/mining_trucks/1960s_dump_truck_3_axle.pcx 98 210 01 16 36 -18 -8
 2340 sprites/pcx/mining_trucks/1960s_dump_truck_3_axle.pcx 146 210 09 20 26 -11 -9
 2341 sprites/pcx/mining_trucks/1960s_dump_truck_3_axle.pcx 178 210 01 24 12 -5 -13
 2342 sprites/pcx/mining_trucks/1960s_dump_truck_3_axle.pcx 210 210 09 20 26 -16 -9
 2343 sprites/pcx/mining_trucks/1960s_dump_truck_3_axle.pcx 242 210 01 16 36 -22 -9
 2344 sprites/pcx/mining_trucks/1960s_dump_truck_3_axle.pcx 290 210 09 20 26 -8 -11
  // Mount Rainier 50t dump truck white
 2345 sprites/pcx/mining_trucks/1960s_dump_truck_3_axle.pcx 34 250 01 24 12 -5 -13
 2346 sprites/pcx/mining_trucks/1960s_dump_truck_3_axle.pcx 66 250 09 20 26 -17 -8
 2347 sprites/pcx/mining_trucks/1960s_dump_truck_3_axle.pcx 98 250 01 16 36 -18 -8
 2348 sprites/pcx/mining_trucks/1960s_dump_truck_3_axle.pcx 146 250 09 20 26 -11 -9
 2349 sprites/pcx/mining_trucks/1960s_dump_truck_3_axle.pcx 178 250 01 24 12 -5 -13
 2350 sprites/pcx/mining_trucks/1960s_dump_truck_3_axle.pcx 210 250 09 20 26 -16 -9
 2351 sprites/pcx/mining_trucks/1960s_dump_truck_3_axle.pcx 242 250 01 16 36 -22 -9
 2352 sprites/pcx/mining_trucks/1960s_dump_truck_3_axle.pcx 290 250 09 20 26 -8 -11
  // Mount Rainier 50t dump truck brown partial
 2353 sprites/pcx/mining_trucks/1960s_dump_truck_3_axle.pcx 34 290 01 24 12 -5 -13
 2354 sprites/pcx/mining_trucks/1960s_dump_truck_3_axle.pcx 66 290 09 20 26 -17 -8
 2355 sprites/pcx/mining_trucks/1960s_dump_truck_3_axle.pcx 98 290 01 16 36 -18 -8
 2356 sprites/pcx/mining_trucks/1960s_dump_truck_3_axle.pcx 146 290 09 20 26 -11 -9
 2357 sprites/pcx/mining_trucks/1960s_dump_truck_3_axle.pcx 178 290 01 24 12 -5 -13
 2358 sprites/pcx/mining_trucks/1960s_dump_truck_3_axle.pcx 210 290 09 20 26 -16 -9
 2359 sprites/pcx/mining_trucks/1960s_dump_truck_3_axle.pcx 242 290 01 16 36 -22 -9
 2360 sprites/pcx/mining_trucks/1960s_dump_truck_3_axle.pcx 290 290 09 20 26 -8 -11
  // Mount Rainier 50t dump truck brown
 2361 sprites/pcx/mining_trucks/1960s_dump_truck_3_axle.pcx 34 330 01 24 12 -5 -13
 2362 sprites/pcx/mining_trucks/1960s_dump_truck_3_axle.pcx 66 330 09 20 26 -17 -8
 2363 sprites/pcx/mining_trucks/1960s_dump_truck_3_axle.pcx 98 330 01 16 36 -18 -8
 2364 sprites/pcx/mining_trucks/1960s_dump_truck_3_axle.pcx 146 330 09 20 26 -11 -9
 2365 sprites/pcx/mining_trucks/1960s_dump_truck_3_axle.pcx 178 330 01 24 12 -5 -13
 2366 sprites/pcx/mining_trucks/1960s_dump_truck_3_axle.pcx 210 330 09 20 26 -16 -9
 2367 sprites/pcx/mining_trucks/1960s_dump_truck_3_axle.pcx 242 330 01 16 36 -22 -9
 2368 sprites/pcx/mining_trucks/1960s_dump_truck_3_axle.pcx 290 330 09 20 26 -8 -11
  // Mount Rainier 50t dump truck grey partial
 2369 sprites/pcx/mining_trucks/1960s_dump_truck_3_axle.pcx 34 370 01 24 12 -5 -13
 2370 sprites/pcx/mining_trucks/1960s_dump_truck_3_axle.pcx 66 370 09 20 26 -17 -8
 2371 sprites/pcx/mining_trucks/1960s_dump_truck_3_axle.pcx 98 370 01 16 36 -18 -8
 2372 sprites/pcx/mining_trucks/1960s_dump_truck_3_axle.pcx 146 370 09 20 26 -11 -9
 2373 sprites/pcx/mining_trucks/1960s_dump_truck_3_axle.pcx 178 370 01 24 12 -5 -13
 2374 sprites/pcx/mining_trucks/1960s_dump_truck_3_axle.pcx 210 370 09 20 26 -16 -9
 2375 sprites/pcx/mining_trucks/1960s_dump_truck_3_axle.pcx 242 370 01 16 36 -22 -9
 2376 sprites/pcx/mining_trucks/1960s_dump_truck_3_axle.pcx 290 370 09 20 26 -8 -11
  // Mount Rainier 50t dump truck grey
 2377 sprites/pcx/mining_trucks/1960s_dump_truck_3_axle.pcx 34 410 01 24 12 -5 -13
 2378 sprites/pcx/mining_trucks/1960s_dump_truck_3_axle.pcx 66 410 09 20 26 -17 -8
 2379 sprites/pcx/mining_trucks/1960s_dump_truck_3_axle.pcx 98 410 01 16 36 -18 -8
 2380 sprites/pcx/mining_trucks/1960s_dump_truck_3_axle.pcx 146 410 09 20 26 -11 -9
 2381 sprites/pcx/mining_trucks/1960s_dump_truck_3_axle.pcx 178 410 01 24 12 -5 -13
 2382 sprites/pcx/mining_trucks/1960s_dump_truck_3_axle.pcx 210 410 09 20 26 -16 -9
 2383 sprites/pcx/mining_trucks/1960s_dump_truck_3_axle.pcx 242 410 01 16 36 -22 -9
 2384 sprites/pcx/mining_trucks/1960s_dump_truck_3_axle.pcx 290 410 09 20 26 -8 -11
  // Mount Rainier 50t dump truck red partial
 2385 sprites/pcx/mining_trucks/1960s_dump_truck_3_axle.pcx 34 450 01 24 12 -5 -13
 2386 sprites/pcx/mining_trucks/1960s_dump_truck_3_axle.pcx 66 450 09 20 26 -17 -8
 2387 sprites/pcx/mining_trucks/1960s_dump_truck_3_axle.pcx 98 450 01 16 36 -18 -8
 2388 sprites/pcx/mining_trucks/1960s_dump_truck_3_axle.pcx 146 450 09 20 26 -11 -9
 2389 sprites/pcx/mining_trucks/1960s_dump_truck_3_axle.pcx 178 450 01 24 12 -5 -13
 2390 sprites/pcx/mining_trucks/1960s_dump_truck_3_axle.pcx 210 450 09 20 26 -16 -9
 2391 sprites/pcx/mining_trucks/1960s_dump_truck_3_axle.pcx 242 450 01 16 36 -22 -9
 2392 sprites/pcx/mining_trucks/1960s_dump_truck_3_axle.pcx 290 450 09 20 26 -8 -11
  // Mount Rainier 50t dump truck red
 2393 sprites/pcx/mining_trucks/1960s_dump_truck_3_axle.pcx 34 490 01 24 12 -5 -13
 2394 sprites/pcx/mining_trucks/1960s_dump_truck_3_axle.pcx 66 490 09 20 26 -17 -8
 2395 sprites/pcx/mining_trucks/1960s_dump_truck_3_axle.pcx 98 490 01 16 36 -18 -8
 2396 sprites/pcx/mining_trucks/1960s_dump_truck_3_axle.pcx 146 490 09 20 26 -11 -9
 2397 sprites/pcx/mining_trucks/1960s_dump_truck_3_axle.pcx 178 490 01 24 12 -5 -13
 2398 sprites/pcx/mining_trucks/1960s_dump_truck_3_axle.pcx 210 490 09 20 26 -16 -9
 2399 sprites/pcx/mining_trucks/1960s_dump_truck_3_axle.pcx 242 490 01 16 36 -22 -9
 2400 sprites/pcx/mining_trucks/1960s_dump_truck_3_axle.pcx 290 490 09 20 26 -8 -11
  // Mount Rainier 50t dump truck sand partial
 2401 sprites/pcx/mining_trucks/1960s_dump_truck_3_axle.pcx 34 530 01 24 12 -5 -13
 2402 sprites/pcx/mining_trucks/1960s_dump_truck_3_axle.pcx 66 530 09 20 26 -17 -8
 2403 sprites/pcx/mining_trucks/1960s_dump_truck_3_axle.pcx 98 530 01 16 36 -18 -8
 2404 sprites/pcx/mining_trucks/1960s_dump_truck_3_axle.pcx 146 530 09 20 26 -11 -9
 2405 sprites/pcx/mining_trucks/1960s_dump_truck_3_axle.pcx 178 530 01 24 12 -5 -13
 2406 sprites/pcx/mining_trucks/1960s_dump_truck_3_axle.pcx 210 530 09 20 26 -16 -9
 2407 sprites/pcx/mining_trucks/1960s_dump_truck_3_axle.pcx 242 530 01 16 36 -22 -9
 2408 sprites/pcx/mining_trucks/1960s_dump_truck_3_axle.pcx 290 530 09 20 26 -8 -11
  // Mount Rainier 50t dump truck sand
 2409 sprites/pcx/mining_trucks/1960s_dump_truck_3_axle.pcx 34 570 01 24 12 -5 -13
 2410 sprites/pcx/mining_trucks/1960s_dump_truck_3_axle.pcx 66 570 09 20 26 -17 -8
 2411 sprites/pcx/mining_trucks/1960s_dump_truck_3_axle.pcx 98 570 01 16 36 -18 -8
 2412 sprites/pcx/mining_trucks/1960s_dump_truck_3_axle.pcx 146 570 09 20 26 -11 -9
 2413 sprites/pcx/mining_trucks/1960s_dump_truck_3_axle.pcx 178 570 01 24 12 -5 -13
 2414 sprites/pcx/mining_trucks/1960s_dump_truck_3_axle.pcx 210 570 09 20 26 -16 -9
 2415 sprites/pcx/mining_trucks/1960s_dump_truck_3_axle.pcx 242 570 01 16 36 -22 -9
 2416 sprites/pcx/mining_trucks/1960s_dump_truck_3_axle.pcx 290 570 09 20 26 -8 -11
 2417 * 17	 02 01 A1 03 03  00 00  01 00  02 00    00 00  01 00  02 00  // coal
 2418 * 17	 02 01 A2 03 03  00 00  03 00  04 00    00 00  03 00  04 00  // iron ore
 2419 * 17	 02 01 A3 03 03  00 00  05 00  06 00    00 00  05 00  06 00  // white
 2420 * 17	 02 01 A4 03 03  00 00  07 00  08 00    00 00  07 00  08 00  // brown
 2421 * 17	 02 01 A5 03 03  00 00  09 00  0A 00    00 00  09 00  0A 00  // grey
 2422 * 17	 02 01 A6 03 03  00 00  0B 00  0C 00    00 00  0B 00  0C 00  // red
 2423 * 17	 02 01 A7 03 03  00 00  0D 00  0E 00    00 00  0D 00  0E 00  // sand
 2424 * 4	 01 01 01 04
 2425 * 1	 00
 2426 * 1	 00
 2427 sprites/pcx/mining_trucks/1960s_dump_truck_3_axle.pcx 370 13 01 12 36 -14 -6
 2428 * 1	 00
 2429 * 9	 02 01 AF 01 01 00 00 00 00
 2430 * 28	 03 01 01 D1 // Action 3 
    07  // number of cargos
     01 A1 00
     08 A2 00 
     0E A6 00 // CORE
     18 A6 00 // AORE (bauxite)
     19 A7 00 // SAND
     1A A5 00 // GRVL
     FF AF 00 // buy menu sprites
    A6 00 // default sprites

  // Thunder Mountain Mining Truck  90t		1960-1982		30mph
 2431 * 67	 00 01 1A 01 D2
    00 \w1-1-1920     // intro date (min value: 1-1-1920)
    02 20             // reliability
    03 19             // vehicle life
    04 19             // class life
    06 0F             // climate
    07 05             // load amount
    08 \b96           // speed in mph * 3.2
    09 50             // running cost factor
    0A 48 4C 00 00        // running cost base
    0E FF             // sprite ID
    0F 00             // capacity
    10 FF             // cargo type 
    11 5D             // cost factor
    12 19             // sound effect
    13 \b60           // power in 10 hp
    14 \b96           // weight in 1/4 tons
    15 \b24           // speed in mph * 0.8
    16 40 00 00 28     // Bit mask of cargo types available for refitting
    // flips 1D / 1E values: excludes grain, wheat, maize
    17 16             // Callback flags bit mask
    18 49             // coefficient of tractive effort (reduced for articulated mining truck with only 1 powered axle)
    1A 00             // Refit cost, using 25% of the purchase price cost base
    1B 00             // Retire vehicle early, this many years before the end of phase 2
    1C 02             // Miscellaneous vehicle flags 01 = tram, 02 = use 2CC
    1D 10 00          // Refittable cargo classes
    1E EF 03          // Non-refittable cargo classes
    1F 72 EC 0A 00    // Long format introduction date
 2432 * 35	 04 01 7F 01 D2 "Thunder Mountain Mining Truck" 00
 2433 * 41	 04 01 81 01 D2 D0 "Hauls: " 8A "One 90t belly-dump trailer" 00
 2434 * 4	 01 01 01 08
  // Thunder Mountain mining truck empty
 2435 sprites/pcx/heavy_trucks.pcx 34 250 01 24 12 -5 -18
 2436 sprites/pcx/heavy_trucks.pcx 66 250 09 20 26 -13 -9
 2437 sprites/pcx/heavy_trucks.pcx 98 250 01 16 36 -10 -10
 2438 sprites/pcx/heavy_trucks.pcx 146 250 09 20 26 -7 -9
 2439 sprites/pcx/heavy_trucks.pcx 178 250 01 24 12 -5 -16
 2440 sprites/pcx/heavy_trucks.pcx 210 250 09 20 26 -21 -6
 2441 sprites/pcx/heavy_trucks.pcx 242 250 01 16 36 -28 -9
 2442 sprites/pcx/heavy_trucks.pcx 290 250 09 20 26 -14 -13
 2443 * 9	 02 01 A1 01 01 00 00 00 00 // normal action2 defining graphics with no loading/loaded stages
 2444 * 4	 01 01 01 04
 2445 * 1	 00
 2446 * 1	 00
 2447 sprites/pcx/heavy_trucks.pcx 370 250 01 16 36 -14 -9
 2448 * 1	 00
 2449 * 9	 02 01 F1 // action2 buy menu sprites 
      01 // number loading states
      01 // number loaded states
      00 00 // loading sprites
      00 00 // loaded sprites
 2450 * 14	 02 01 F0 // varaction 2 handles buy menu callbacks 
                 81 0C 00 FF //check byte value of variable 81 (no bit shift, FF andmask)
                 01 // range
                   D2 80 23 23 // text for vehicle window
                 F1 00 //otherwise go to next action 2 ID 
 2451 * 14	 02 01 B0 //ID B0
               81 10 00 FF //check byte value of variable 10 (no bit shift, FF andmask)
               01 //check one ranges
                 06 80 01 01 //give callback result
               FF FF //otherwise end the callback chain
 2452 * 14	 02 01 B6 // provide correct refit/capacity information in buy menu (credits to DJ Nekkid for solution)
               82 40 10 FF // check vehicle length    
               01 // check one range
                 F0 00 00 00 // if length is 0 use purchase menu sprite
               A1 00 // else go to action 2 to apply graphics
 2453 * 18	 02 01 B1 //ID B1
               81 0C 00 FF //check byte value of variable 81 (no bit shift, FF andmask)
               02 //check one range
                 03 80 11 11 // vehicle length CB 
                 B0 00 16 16 // articulated vehicle building instructions
               B6 00 //otherwise go to next action 2 ID 
 2454 * 7	 03 01 01 D2 // Action 3
    00  // Number of different cargo types to support  
    B1 00   // Action 2 ID above  

  // Harney Peak Mining Hauler 60t		1979-2050	40mph
 2455 * 67	 00 01 19 01 D3
    00 \w1-1-1920     // intro date (min value: 1-1-1920)
    02 20             // reliability
    03 19             // vehicle life
    04 19             // class life
    06 0F             // climate
    07 05             // load amount
    08 \b128          // speed in mph * 3.2
    09 50             // running cost factor
    0A 48 4C 00 00    // running cost base
    0E FF             // sprite ID
    0F \b60           // capacity
    10 FF             // cargo type 
    11 5D             // cost factor
    12 17             // sound effect
    13 \b77           // power in 10 hp
    14 \b172          // weight in 1/4 tons
    15 \b32           // speed in mph * 0.8
    16 40 00 00 28    // Bit mask of cargo types available for refitting
    // flips 1D / 1E values: excludes grain, wheat, maize
    17 00             // Callback flags bit mask
    1A 00             // Refit cost, using 25% of the purchase price cost base
    1B 00             // Retire vehicle early, this many years before the end of phase 2
    1C 02             // Miscellaneous vehicle flags 01 = tram, 02 = use 2CC
    1D 10 00          // Refittable cargo classes
    1E EF 03          // Non-refittable cargo classes
    1F \d722825       // Long format introduction date
 2456 * 30	 04 01 7F 01 D3 "Harney Peak Mining Truck" 00  
 2457 * 4	 01 01 0F 08
  // Harney Peak 60t hauler empty
 2458 sprites/pcx/mining_trucks/60t_mining_truck.pcx 34 10 01 24 12 -5 -13
 2459 sprites/pcx/mining_trucks/60t_mining_truck.pcx 66 10 09 20 26 -15 -8
 2460 sprites/pcx/mining_trucks/60t_mining_truck.pcx 98 10 01 16 36 -18 -8
 2461 sprites/pcx/mining_trucks/60t_mining_truck.pcx 146 10 09 20 26 -11 -9
 2462 sprites/pcx/mining_trucks/60t_mining_truck.pcx 178 10 01 24 12 -5 -13
 2463 sprites/pcx/mining_trucks/60t_mining_truck.pcx 210 10 09 20 26 -16 -9
 2464 sprites/pcx/mining_trucks/60t_mining_truck.pcx 242 10 01 16 36 -20 -10
 2465 sprites/pcx/mining_trucks/60t_mining_truck.pcx 290 10 09 20 26 -10 -11
  // Harney Peak 60t hauler coal partial
 2466 sprites/pcx/mining_trucks/60t_mining_truck.pcx 34 50 01 24 12 -5 -13
 2467 sprites/pcx/mining_trucks/60t_mining_truck.pcx 66 50 09 20 26 -15 -8
 2468 sprites/pcx/mining_trucks/60t_mining_truck.pcx 98 50 01 16 36 -18 -8
 2469 sprites/pcx/mining_trucks/60t_mining_truck.pcx 146 50 09 20 26 -11 -9
 2470 sprites/pcx/mining_trucks/60t_mining_truck.pcx 178 50 01 24 12 -5 -13
 2471 sprites/pcx/mining_trucks/60t_mining_truck.pcx 210 50 09 20 26 -16 -9
 2472 sprites/pcx/mining_trucks/60t_mining_truck.pcx 242 50 01 16 36 -20 -10
 2473 sprites/pcx/mining_trucks/60t_mining_truck.pcx 290 50 09 20 26 -10 -11
  // Harney Peak 60t hauler coal
 2474 sprites/pcx/mining_trucks/60t_mining_truck.pcx 34 90 01 24 12 -5 -13
 2475 sprites/pcx/mining_trucks/60t_mining_truck.pcx 66 90 09 20 26 -15 -8
 2476 sprites/pcx/mining_trucks/60t_mining_truck.pcx 98 90 01 16 36 -18 -8
 2477 sprites/pcx/mining_trucks/60t_mining_truck.pcx 146 90 09 20 26 -11 -9
 2478 sprites/pcx/mining_trucks/60t_mining_truck.pcx 178 90 01 24 12 -5 -13
 2479 sprites/pcx/mining_trucks/60t_mining_truck.pcx 210 90 09 20 26 -16 -9
 2480 sprites/pcx/mining_trucks/60t_mining_truck.pcx 242 90 01 16 36 -20 -10
 2481 sprites/pcx/mining_trucks/60t_mining_truck.pcx 290 90 09 20 26 -10 -11
  // Harney Peak 60t hauler iron partial
 2482 sprites/pcx/mining_trucks/60t_mining_truck.pcx 34 130 01 24 12 -5 -13
 2483 sprites/pcx/mining_trucks/60t_mining_truck.pcx 66 130 09 20 26 -15 -8
 2484 sprites/pcx/mining_trucks/60t_mining_truck.pcx 98 130 01 16 36 -18 -8
 2485 sprites/pcx/mining_trucks/60t_mining_truck.pcx 146 130 09 20 26 -11 -9
 2486 sprites/pcx/mining_trucks/60t_mining_truck.pcx 178 130 01 24 12 -5 -13
 2487 sprites/pcx/mining_trucks/60t_mining_truck.pcx 210 130 09 20 26 -16 -9
 2488 sprites/pcx/mining_trucks/60t_mining_truck.pcx 242 130 01 16 36 -20 -10
 2489 sprites/pcx/mining_trucks/60t_mining_truck.pcx 290 130 09 20 26 -10 -11
  // Harney Peak 60t hauler iron
 2490 sprites/pcx/mining_trucks/60t_mining_truck.pcx 34 170 01 24 12 -5 -13
 2491 sprites/pcx/mining_trucks/60t_mining_truck.pcx 66 170 09 20 26 -15 -8
 2492 sprites/pcx/mining_trucks/60t_mining_truck.pcx 98 170 01 16 36 -18 -8
 2493 sprites/pcx/mining_trucks/60t_mining_truck.pcx 146 170 09 20 26 -11 -9
 2494 sprites/pcx/mining_trucks/60t_mining_truck.pcx 178 170 01 24 12 -5 -13
 2495 sprites/pcx/mining_trucks/60t_mining_truck.pcx 210 170 09 20 26 -16 -9
 2496 sprites/pcx/mining_trucks/60t_mining_truck.pcx 242 170 01 16 36 -20 -10
 2497 sprites/pcx/mining_trucks/60t_mining_truck.pcx 290 170 09 20 26 -10 -11
  // Harney Peak 60t hauler white partial
 2498 sprites/pcx/mining_trucks/60t_mining_truck.pcx 34 210 01 24 12 -5 -13
 2499 sprites/pcx/mining_trucks/60t_mining_truck.pcx 66 210 09 20 26 -15 -8
 2500 sprites/pcx/mining_trucks/60t_mining_truck.pcx 98 210 01 16 36 -18 -8
 2501 sprites/pcx/mining_trucks/60t_mining_truck.pcx 146 210 09 20 26 -11 -9
 2502 sprites/pcx/mining_trucks/60t_mining_truck.pcx 178 210 01 24 12 -5 -13
 2503 sprites/pcx/mining_trucks/60t_mining_truck.pcx 210 210 09 20 26 -16 -9
 2504 sprites/pcx/mining_trucks/60t_mining_truck.pcx 242 210 01 16 36 -20 -10
 2505 sprites/pcx/mining_trucks/60t_mining_truck.pcx 290 210 09 20 26 -10 -11
  // Harney Peak 60t hauler white
 2506 sprites/pcx/mining_trucks/60t_mining_truck.pcx 34 250 01 24 12 -5 -13
 2507 sprites/pcx/mining_trucks/60t_mining_truck.pcx 66 250 09 20 26 -15 -8
 2508 sprites/pcx/mining_trucks/60t_mining_truck.pcx 98 250 01 16 36 -18 -8
 2509 sprites/pcx/mining_trucks/60t_mining_truck.pcx 146 250 09 20 26 -11 -9
 2510 sprites/pcx/mining_trucks/60t_mining_truck.pcx 178 250 01 24 12 -5 -13
 2511 sprites/pcx/mining_trucks/60t_mining_truck.pcx 210 250 09 20 26 -16 -9
 2512 sprites/pcx/mining_trucks/60t_mining_truck.pcx 242 250 01 16 36 -20 -10
 2513 sprites/pcx/mining_trucks/60t_mining_truck.pcx 290 250 09 20 26 -10 -11
  // Harney Peak 60t hauler brown partial
 2514 sprites/pcx/mining_trucks/60t_mining_truck.pcx 34 290 01 24 12 -5 -13
 2515 sprites/pcx/mining_trucks/60t_mining_truck.pcx 66 290 09 20 26 -15 -8
 2516 sprites/pcx/mining_trucks/60t_mining_truck.pcx 98 290 01 16 36 -18 -8
 2517 sprites/pcx/mining_trucks/60t_mining_truck.pcx 146 290 09 20 26 -11 -9
 2518 sprites/pcx/mining_trucks/60t_mining_truck.pcx 178 290 01 24 12 -5 -13
 2519 sprites/pcx/mining_trucks/60t_mining_truck.pcx 210 290 09 20 26 -16 -9
 2520 sprites/pcx/mining_trucks/60t_mining_truck.pcx 242 290 01 16 36 -20 -10
 2521 sprites/pcx/mining_trucks/60t_mining_truck.pcx 290 290 09 20 26 -10 -11
  // Harney Peak 60t hauler brown
 2522 sprites/pcx/mining_trucks/60t_mining_truck.pcx 34 330 01 24 12 -5 -13
 2523 sprites/pcx/mining_trucks/60t_mining_truck.pcx 66 330 09 20 26 -15 -8
 2524 sprites/pcx/mining_trucks/60t_mining_truck.pcx 98 330 01 16 36 -18 -8
 2525 sprites/pcx/mining_trucks/60t_mining_truck.pcx 146 330 09 20 26 -11 -9
 2526 sprites/pcx/mining_trucks/60t_mining_truck.pcx 178 330 01 24 12 -5 -13
 2527 sprites/pcx/mining_trucks/60t_mining_truck.pcx 210 330 09 20 26 -16 -9
 2528 sprites/pcx/mining_trucks/60t_mining_truck.pcx 242 330 01 16 36 -20 -10
 2529 sprites/pcx/mining_trucks/60t_mining_truck.pcx 290 330 09 20 26 -10 -11
  // Harney Peak 60t hauler grey partial
 2530 sprites/pcx/mining_trucks/60t_mining_truck.pcx 34 370 01 24 12 -5 -13
 2531 sprites/pcx/mining_trucks/60t_mining_truck.pcx 66 370 09 20 26 -15 -8
 2532 sprites/pcx/mining_trucks/60t_mining_truck.pcx 98 370 01 16 36 -18 -8
 2533 sprites/pcx/mining_trucks/60t_mining_truck.pcx 146 370 09 20 26 -11 -9
 2534 sprites/pcx/mining_trucks/60t_mining_truck.pcx 178 370 01 24 12 -5 -13
 2535 sprites/pcx/mining_trucks/60t_mining_truck.pcx 210 370 09 20 26 -16 -9
 2536 sprites/pcx/mining_trucks/60t_mining_truck.pcx 242 370 01 16 36 -20 -10
 2537 sprites/pcx/mining_trucks/60t_mining_truck.pcx 290 370 09 20 26 -10 -11
  // Harney Peak 60t hauler grey 
 2538 sprites/pcx/mining_trucks/60t_mining_truck.pcx 34 410 01 24 12 -5 -13
 2539 sprites/pcx/mining_trucks/60t_mining_truck.pcx 66 410 09 20 26 -15 -8
 2540 sprites/pcx/mining_trucks/60t_mining_truck.pcx 98 410 01 16 36 -18 -8
 2541 sprites/pcx/mining_trucks/60t_mining_truck.pcx 146 410 09 20 26 -11 -9
 2542 sprites/pcx/mining_trucks/60t_mining_truck.pcx 178 410 01 24 12 -5 -13
 2543 sprites/pcx/mining_trucks/60t_mining_truck.pcx 210 410 09 20 26 -16 -9
 2544 sprites/pcx/mining_trucks/60t_mining_truck.pcx 242 410 01 16 36 -20 -10
 2545 sprites/pcx/mining_trucks/60t_mining_truck.pcx 290 410 09 20 26 -10 -11
  // Harney Peak 60t hauler red partial
 2546 sprites/pcx/mining_trucks/60t_mining_truck.pcx 34 450 01 24 12 -5 -13
 2547 sprites/pcx/mining_trucks/60t_mining_truck.pcx 66 450 09 20 26 -15 -8
 2548 sprites/pcx/mining_trucks/60t_mining_truck.pcx 98 450 01 16 36 -18 -8
 2549 sprites/pcx/mining_trucks/60t_mining_truck.pcx 146 450 09 20 26 -11 -9
 2550 sprites/pcx/mining_trucks/60t_mining_truck.pcx 178 450 01 24 12 -5 -13
 2551 sprites/pcx/mining_trucks/60t_mining_truck.pcx 210 450 09 20 26 -16 -9
 2552 sprites/pcx/mining_trucks/60t_mining_truck.pcx 242 450 01 16 36 -20 -10
 2553 sprites/pcx/mining_trucks/60t_mining_truck.pcx 290 450 09 20 26 -10 -11
  // Harney Peak 60t hauler red
 2554 sprites/pcx/mining_trucks/60t_mining_truck.pcx 34 490 01 24 12 -5 -13
 2555 sprites/pcx/mining_trucks/60t_mining_truck.pcx 66 490 09 20 26 -15 -8
 2556 sprites/pcx/mining_trucks/60t_mining_truck.pcx 98 490 01 16 36 -18 -8
 2557 sprites/pcx/mining_trucks/60t_mining_truck.pcx 146 490 09 20 26 -11 -9
 2558 sprites/pcx/mining_trucks/60t_mining_truck.pcx 178 490 01 24 12 -5 -13
 2559 sprites/pcx/mining_trucks/60t_mining_truck.pcx 210 490 09 20 26 -16 -9
 2560 sprites/pcx/mining_trucks/60t_mining_truck.pcx 242 490 01 16 36 -10 -10
 2561 sprites/pcx/mining_trucks/60t_mining_truck.pcx 290 490 09 20 26 -10 -11
  // Harney Peak 60t hauler sand partial
 2562 sprites/pcx/mining_trucks/60t_mining_truck.pcx 34 530 01 24 12 -5 -13
 2563 sprites/pcx/mining_trucks/60t_mining_truck.pcx 66 530 09 20 26 -15 -8
 2564 sprites/pcx/mining_trucks/60t_mining_truck.pcx 98 530 01 16 36 -18 -8
 2565 sprites/pcx/mining_trucks/60t_mining_truck.pcx 146 530 09 20 26 -11 -9
 2566 sprites/pcx/mining_trucks/60t_mining_truck.pcx 178 530 01 24 12 -5 -13
 2567 sprites/pcx/mining_trucks/60t_mining_truck.pcx 210 530 09 20 26 -16 -9
 2568 sprites/pcx/mining_trucks/60t_mining_truck.pcx 242 530 01 16 36 -20 -10
 2569 sprites/pcx/mining_trucks/60t_mining_truck.pcx 290 530 09 20 26 -10 -11
  // Harney Peak 60t hauler sand
 2570 sprites/pcx/mining_trucks/60t_mining_truck.pcx 34 570 01 24 12 -5 -13
 2571 sprites/pcx/mining_trucks/60t_mining_truck.pcx 66 570 09 20 26 -15 -8
 2572 sprites/pcx/mining_trucks/60t_mining_truck.pcx 98 570 01 16 36 -18 -8
 2573 sprites/pcx/mining_trucks/60t_mining_truck.pcx 146 570 09 20 26 -11 -9
 2574 sprites/pcx/mining_trucks/60t_mining_truck.pcx 178 570 01 24 12 -5 -13
[...]
 2821 sprites/pcx/mining_trucks/unitised_mining_truck.pcx 66 210 01 22 30 -17 -10
 2822 sprites/pcx/mining_trucks/unitised_mining_truck.pcx 98 210 01 16 36 -14 -9
 2823 sprites/pcx/mining_trucks/unitised_mining_truck.pcx 146 210 01 22 30 -10 -10
 2824 sprites/pcx/mining_trucks/unitised_mining_truck.pcx 178 210 01 24 12 -5 -13
 2825 sprites/pcx/mining_trucks/unitised_mining_truck.pcx 210 210 01 22 30 -18 -11
 2826 sprites/pcx/mining_trucks/unitised_mining_truck.pcx 242 210 01 16 36 -14 -10
 2827 sprites/pcx/mining_trucks/unitised_mining_truck.pcx 290 210 01 22 30 -9 -11
  // unitised hauler white
 2828 sprites/pcx/mining_trucks/unitised_mining_truck.pcx 34 250 01 24 12 -5 -15
 2829 sprites/pcx/mining_trucks/unitised_mining_truck.pcx 66 250 01 22 30 -17 -10
 2830 sprites/pcx/mining_trucks/unitised_mining_truck.pcx 98 250 01 16 36 -14 -9
 2831 sprites/pcx/mining_trucks/unitised_mining_truck.pcx 146 250 01 22 30 -10 -10
 2832 sprites/pcx/mining_trucks/unitised_mining_truck.pcx 178 250 01 24 12 -5 -13
 2833 sprites/pcx/mining_trucks/unitised_mining_truck.pcx 210 250 01 22 30 -18 -11
 2834 sprites/pcx/mining_trucks/unitised_mining_truck.pcx 242 250 01 16 36 -14 -10
 2835 sprites/pcx/mining_trucks/unitised_mining_truck.pcx 290 250 01 22 30 -9 -11
 // unitised hauler brown partial
 2836 sprites/pcx/mining_trucks/unitised_mining_truck.pcx 34 290 01 24 12 -5 -15
 2837 sprites/pcx/mining_trucks/unitised_mining_truck.pcx 66 290 01 22 30 -17 -10
 2838 sprites/pcx/mining_trucks/unitised_mining_truck.pcx 98 290 01 16 36 -14 -9
 2839 sprites/pcx/mining_trucks/unitised_mining_truck.pcx 146 290 01 22 30 -10 -10
 2840 sprites/pcx/mining_trucks/unitised_mining_truck.pcx 178 290 01 24 12 -5 -13
 2841 sprites/pcx/mining_trucks/unitised_mining_truck.pcx 210 290 01 22 30 -18 -11
 2842 sprites/pcx/mining_trucks/unitised_mining_truck.pcx 242 290 01 16 36 -14 -10
 2843 sprites/pcx/mining_trucks/unitised_mining_truck.pcx 290 290 01 22 30 -9 -11
  // unitised hauler brown 
 2844 sprites/pcx/mining_trucks/unitised_mining_truck.pcx 34 330 01 24 12 -5 -15
 2845 sprites/pcx/mining_trucks/unitised_mining_truck.pcx 66 330 01 22 30 -17 -10
 2846 sprites/pcx/mining_trucks/unitised_mining_truck.pcx 98 330 01 16 36 -14 -9
 2847 sprites/pcx/mining_trucks/unitised_mining_truck.pcx 146 330 01 22 30 -10 -10
 2848 sprites/pcx/mining_trucks/unitised_mining_truck.pcx 178 330 01 24 12 -5 -13
 2849 sprites/pcx/mining_trucks/unitised_mining_truck.pcx 210 330 01 22 30 -18 -11
 2850 sprites/pcx/mining_trucks/unitised_mining_truck.pcx 242 330 01 16 36 -14 -10
 2851 sprites/pcx/mining_trucks/unitised_mining_truck.pcx 290 330 01 22 30 -9 -11
  // unitised hauler grey partial
 2852 sprites/pcx/mining_trucks/unitised_mining_truck.pcx 34 370 01 24 12 -5 -15
 2853 sprites/pcx/mining_trucks/unitised_mining_truck.pcx 66 370 01 22 30 -17 -10
 2854 sprites/pcx/mining_trucks/unitised_mining_truck.pcx 98 370 01 16 36 -14 -9
 2855 sprites/pcx/mining_trucks/unitised_mining_truck.pcx 146 370 01 22 30 -10 -10
 2856 sprites/pcx/mining_trucks/unitised_mining_truck.pcx 178 370 01 24 12 -5 -13
 2857 sprites/pcx/mining_trucks/unitised_mining_truck.pcx 210 370 01 22 30 -18 -11
 2858 sprites/pcx/mining_trucks/unitised_mining_truck.pcx 242 370 01 16 36 -14 -10
 2859 sprites/pcx/mining_trucks/unitised_mining_truck.pcx 290 370 01 22 30 -9 -11
  // unitised hauler grey
 2860 sprites/pcx/mining_trucks/unitised_mining_truck.pcx 34 410 01 24 12 -5 -15
 2861 sprites/pcx/mining_trucks/unitised_mining_truck.pcx 66 410 01 22 30 -17 -10
 2862 sprites/pcx/mining_trucks/unitised_mining_truck.pcx 98 410 01 16 36 -14 -9
 2863 sprites/pcx/mining_trucks/unitised_mining_truck.pcx 146 410 01 22 30 -10 -10
 2864 sprites/pcx/mining_trucks/unitised_mining_truck.pcx 178 410 01 24 12 -5 -13
 2865 sprites/pcx/mining_trucks/unitised_mining_truck.pcx 210 410 01 22 30 -18 -11
 2866 sprites/pcx/mining_trucks/unitised_mining_truck.pcx 242 410 01 16 36 -14 -10
 2867 sprites/pcx/mining_trucks/unitised_mining_truck.pcx 290 410 01 22 30 -9 -11
 // unitised hauler red partial
 2868 sprites/pcx/mining_trucks/unitised_mining_truck.pcx 34 450 01 24 12 -5 -15
 2869 sprites/pcx/mining_trucks/unitised_mining_truck.pcx 66 450 01 22 30 -17 -10
 2870 sprites/pcx/mining_trucks/unitised_mining_truck.pcx 98 450 01 16 36 -14 -9
 2871 sprites/pcx/mining_trucks/unitised_mining_truck.pcx 146 450 01 22 30 -10 -10
 2872 sprites/pcx/mining_trucks/unitised_mining_truck.pcx 178 450 01 24 12 -5 -13
 2873 sprites/pcx/mining_trucks/unitised_mining_truck.pcx 210 450 01 22 30 -18 -11
 2874 sprites/pcx/mining_trucks/unitised_mining_truck.pcx 242 450 01 16 36 -14 -10
 2875 sprites/pcx/mining_trucks/unitised_mining_truck.pcx 290 450 01 22 30 -9 -11
 // unitised hauler red
 2876 sprites/pcx/mining_trucks/unitised_mining_truck.pcx 34 490 01 24 12 -5 -15
 2877 sprites/pcx/mining_trucks/unitised_mining_truck.pcx 66 490 01 22 30 -17 -10
 2878 sprites/pcx/mining_trucks/unitised_mining_truck.pcx 98 490 01 16 36 -14 -9
 2879 sprites/pcx/mining_trucks/unitised_mining_truck.pcx 146 490 01 22 30 -10 -10
 2880 sprites/pcx/mining_trucks/unitised_mining_truck.pcx 178 490 01 24 12 -5 -13
 2881 sprites/pcx/mining_trucks/unitised_mining_truck.pcx 210 490 01 22 30 -18 -11
 2882 sprites/pcx/mining_trucks/unitised_mining_truck.pcx 242 490 01 16 36 -14 -10
 2883 sprites/pcx/mining_trucks/unitised_mining_truck.pcx 290 490 01 22 30 -9 -11
  // unitised hauler sand partial
 2884 sprites/pcx/mining_trucks/unitised_mining_truck.pcx 34 530 01 24 12 -5 -15
 2885 sprites/pcx/mining_trucks/unitised_mining_truck.pcx 66 530 01 22 30 -17 -10
 2886 sprites/pcx/mining_trucks/unitised_mining_truck.pcx 98 530 01 16 36 -14 -9
 2887 sprites/pcx/mining_trucks/unitised_mining_truck.pcx 146 530 01 22 30 -10 -10
 2888 sprites/pcx/mining_trucks/unitised_mining_truck.pcx 178 530 01 24 12 -5 -13
 2889 sprites/pcx/mining_trucks/unitised_mining_truck.pcx 210 530 01 22 30 -18 -11
 2890 sprites/pcx/mining_trucks/unitised_mining_truck.pcx 242 530 01 16 36 -14 -10
 2891 sprites/pcx/mining_trucks/unitised_mining_truck.pcx 290 530 01 22 30 -9 -11
  // unitised hauler sand
 2892 sprites/pcx/mining_trucks/unitised_mining_truck.pcx 34 570 01 24 12 -5 -15
 2893 sprites/pcx/mining_trucks/unitised_mining_truck.pcx 66 570 01 22 30 -17 -10
 2894 sprites/pcx/mining_trucks/unitised_mining_truck.pcx 98 570 01 16 36 -14 -9
 2895 sprites/pcx/mining_trucks/unitised_mining_truck.pcx 146 570 01 22 30 -10 -10
 2896 sprites/pcx/mining_trucks/unitised_mining_truck.pcx 178 570 01 24 12 -5 -13
 2897 sprites/pcx/mining_trucks/unitised_mining_truck.pcx 210 570 01 22 30 -18 -11
 2898 sprites/pcx/mining_trucks/unitised_mining_truck.pcx 242 570 01 16 36 -14 -10
 2899 sprites/pcx/mining_trucks/unitised_mining_truck.pcx 290 570 01 22 30 -9 -11
 2900 * 17	 02 01 A1 03 03  00 00  01 00  02 00    00 00  01 00  02 00  // coal
 2901 * 17	 02 01 A2 03 03  00 00  03 00  04 00    00 00  03 00  04 00  // iron ore
 2902 * 17	 02 01 A3 03 03  00 00  05 00  06 00    00 00  05 00  06 00  // white
 2903 * 17	 02 01 A4 03 03  00 00  07 00  08 00    00 00  07 00  08 00  // brown
 2904 * 17	 02 01 A5 03 03  00 00  09 00  0A 00    00 00  09 00  0A 00  // grey
 2905 * 17	 02 01 A6 03 03  00 00  0B 00  0C 00    00 00  0B 00  0C 00  // red
 2906 * 17	 02 01 A7 03 03  00 00  0D 00  0E 00    00 00  0D 00  0E 00  // sand
 2907 * 4	 01 01 01 04
 2908 * 1	 00
 2909 * 1	 00
 -1 sprites/pcx/mining_trucks/unitised_mining_truck.pcx 370 14 01 12 36 -14 -6
 -1 * 1	 00
 -1 * 9	 02 01 AF 01 01 00 00 00 00
 -1 * 28	 03 01 01 D7 // Action 3 
   07 // number of cargo types
     01 A1 00
     08 A2 00 
     0E A6 00 // CORE
     18 A6 00 // AORE (bauxite)
     19 A7 00 // SAND
     1A A5 00 // GRVL
     FF AF 00 // buy menu sprites
   A5 00 // default sprites
   
  // Wolfpen Ridge Dump Truck  50t		2005-2050	50mph
 2157 * 67	 00 01 19 01 D9
    00 \w1-1-2005     // intro date (min value: 1-1-1920)
    02 20             // reliability
    03 19             // vehicle life
    04 19             // class life
    06 0F             // climate
    07 05             // load amount
    08 \b160          // speed in mph * 3.2
    09 50             // running cost factor
    0A 48 4C 00 00        // running cost base
    0E FF             // sprite ID
    0F \b50           // capacity
    10 FF             // cargo type 
    11 5D             // cost factor
    12 19             // sound effect
    13 \b70           // power in 10 hp
    14 \b140           // weight in 1/4 tons
    15 \b40           // speed in mph * 0.8
    16 40 00 00 28    // Bit mask of cargo types available for refitting
    // flips 1D / 1E values: excludes grain, wheat, maize
    17 00             // Callback flags bit mask
    1A 00             // Refit cost, using 25% of the purchase price cost base
    1B 00             // Retire vehicle early, this many years before the end of phase 2
    1C 02             // Miscellaneous vehicle flags 01 = tram, 02 = use 2CC
    1D 10 00          // Refittable cargo classes
    1E EF 03          // Non-refittable cargo classes
    1F FF 2C 0B 00    // Long format introduction date
 2158 * 29	 04 01 7F 01 D9 "Wolfpen Ridge Dump Truck" 00
 2159 * 4	 01 01 0F 08
  // Wolfpen Ridge 30t dump truck empty 
 2160 sprites/pcx/mining_trucks/20xx_dump_truck.pcx 34 10 01 24 12 -5 -13
 2161 sprites/pcx/mining_trucks/20xx_dump_truck.pcx 66 10 09 20 26 -17 -8
 2162 sprites/pcx/mining_trucks/20xx_dump_truck.pcx 98 10 01 16 36 -18 -8
 2163 sprites/pcx/mining_trucks/20xx_dump_truck.pcx 146 10 09 20 26 -11 -9
 2164 sprites/pcx/mining_trucks/20xx_dump_truck.pcx 178 10 01 24 12 -5 -13
 2165 sprites/pcx/mining_trucks/20xx_dump_truck.pcx 210 10 09 20 26 -17 -9
 2166 sprites/pcx/mining_trucks/20xx_dump_truck.pcx 242 10 01 16 36 -28 -9
 2167 sprites/pcx/mining_trucks/20xx_dump_truck.pcx 290 10 09 20 26 -9 -10
  // Wolfpen Ridge 30t dump truck coal partial
 2168 sprites/pcx/mining_trucks/20xx_dump_truck.pcx 34 50 01 24 12 -5 -13
 2169 sprites/pcx/mining_trucks/20xx_dump_truck.pcx 66 50 09 20 26 -17 -8
 2170 sprites/pcx/mining_trucks/20xx_dump_truck.pcx 98 50 01 16 36 -18 -8
 2171 sprites/pcx/mining_trucks/20xx_dump_truck.pcx 146 50 09 20 26 -11 -9
 2172 sprites/pcx/mining_trucks/20xx_dump_truck.pcx 178 50 01 24 12 -5 -13
 2173 sprites/pcx/mining_trucks/20xx_dump_truck.pcx 210 50 09 20 26 -17 -9
 2174 sprites/pcx/mining_trucks/20xx_dump_truck.pcx 242 50 01 16 36 -28 -9
 2175 sprites/pcx/mining_trucks/20xx_dump_truck.pcx 290 50 09 20 26 -9 -10
    // Wolfpen Ridge 30t dump truck coal 
 2176 sprites/pcx/mining_trucks/20xx_dump_truck.pcx 34 90 01 24 12 -5 -13
 2177 sprites/pcx/mining_trucks/20xx_dump_truck.pcx 66 90 09 20 26 -17 -8
 2178 sprites/pcx/mining_trucks/20xx_dump_truck.pcx 98 90 01 16 36 -18 -8
 2179 sprites/pcx/mining_trucks/20xx_dump_truck.pcx 146 90 09 20 26 -11 -9
 2180 sprites/pcx/mining_trucks/20xx_dump_truck.pcx 178 90 01 24 12 -5 -13
 2181 sprites/pcx/mining_trucks/20xx_dump_truck.pcx 210 90 09 20 26 -17 -9
 2182 sprites/pcx/mining_trucks/20xx_dump_truck.pcx 242 90 01 16 36 -28 -9
 2183 sprites/pcx/mining_trucks/20xx_dump_truck.pcx 290 90 09 20 26 -9 -10
  // Wolfpen Ridge 30t dump truck iron partial
 2184 sprites/pcx/mining_trucks/20xx_dump_truck.pcx 34 130 01 24 12 -5 -13
 2185 sprites/pcx/mining_trucks/20xx_dump_truck.pcx 66 130 09 20 26 -17 -8
 2186 sprites/pcx/mining_trucks/20xx_dump_truck.pcx 98 130 01 16 36 -18 -8
 2187 sprites/pcx/mining_trucks/20xx_dump_truck.pcx 146 130 09 20 26 -11 -9
 2188 sprites/pcx/mining_trucks/20xx_dump_truck.pcx 178 130 01 24 12 -5 -13
 2189 sprites/pcx/mining_trucks/20xx_dump_truck.pcx 210 130 09 20 26 -17 -9
 2190 sprites/pcx/mining_trucks/20xx_dump_truck.pcx 242 130 01 16 36 -28 -9
 2191 sprites/pcx/mining_trucks/20xx_dump_truck.pcx 290 130 09 20 26 -9 -10
  // Wolfpen Ridge 30t dump truck iron 
 2192 sprites/pcx/mining_trucks/20xx_dump_truck.pcx 34 170 01 24 12 -5 -13
 2193 sprites/pcx/mining_trucks/20xx_dump_truck.pcx 66 170 09 20 26 -17 -8
 2194 sprites/pcx/mining_trucks/20xx_dump_truck.pcx 98 170 01 16 36 -18 -8
 2195 sprites/pcx/mining_trucks/20xx_dump_truck.pcx 146 170 09 20 26 -11 -9
 2196 sprites/pcx/mining_trucks/20xx_dump_truck.pcx 178 170 01 24 12 -5 -13
 2197 sprites/pcx/mining_trucks/20xx_dump_truck.pcx 210 170 09 20 26 -17 -9
 2198 sprites/pcx/mining_trucks/20xx_dump_truck.pcx 242 170 01 16 36 -28 -9
 2199 sprites/pcx/mining_trucks/20xx_dump_truck.pcx 290 170 09 20 26 -9 -10
  // Wolfpen Ridge 30t dump truck white partial
 2200 sprites/pcx/mining_trucks/20xx_dump_truck.pcx 34 210 01 24 12 -5 -13
 2201 sprites/pcx/mining_trucks/20xx_dump_truck.pcx 66 210 09 20 26 -17 -8
 2202 sprites/pcx/mining_trucks/20xx_dump_truck.pcx 98 210 01 16 36 -18 -8
 2203 sprites/pcx/mining_trucks/20xx_dump_truck.pcx 146 210 09 20 26 -11 -9
 2204 sprites/pcx/mining_trucks/20xx_dump_truck.pcx 178 210 01 24 12 -5 -13
 2205 sprites/pcx/mining_trucks/20xx_dump_truck.pcx 210 210 09 20 26 -17 -9
 2206 sprites/pcx/mining_trucks/20xx_dump_truck.pcx 242 210 01 16 36 -28 -9
 2207 sprites/pcx/mining_trucks/20xx_dump_truck.pcx 290 210 09 20 26 -9 -10
  // Wolfpen Ridge 30t dump truck white 
 2208 sprites/pcx/mining_trucks/20xx_dump_truck.pcx 34 250 01 24 12 -5 -13
 2209 sprites/pcx/mining_trucks/20xx_dump_truck.pcx 66 250 09 20 26 -17 -8
 2210 sprites/pcx/mining_trucks/20xx_dump_truck.pcx 98 250 01 16 36 -18 -8
 2211 sprites/pcx/mining_trucks/20xx_dump_truck.pcx 146 250 09 20 26 -11 -9
 2212 sprites/pcx/mining_trucks/20xx_dump_truck.pcx 178 250 01 24 12 -5 -13
 2213 sprites/pcx/mining_trucks/20xx_dump_truck.pcx 210 250 09 20 26 -17 -9
 2214 sprites/pcx/mining_trucks/20xx_dump_truck.pcx 242 250 01 16 36 -28 -9
 2215 sprites/pcx/mining_trucks/20xx_dump_truck.pcx 290 250 09 20 26 -9 -10
  // Wolfpen Ridge 30t dump truck brown partial
 2216 sprites/pcx/mining_trucks/20xx_dump_truck.pcx 34 290 01 24 12 -5 -13
 2217 sprites/pcx/mining_trucks/20xx_dump_truck.pcx 66 290 09 20 26 -17 -8
 2218 sprites/pcx/mining_trucks/20xx_dump_truck.pcx 98 290 01 16 36 -18 -8
 2219 sprites/pcx/mining_trucks/20xx_dump_truck.pcx 146 290 09 20 26 -11 -9
 2220 sprites/pcx/mining_trucks/20xx_dump_truck.pcx 178 290 01 24 12 -5 -13
 2221 sprites/pcx/mining_trucks/20xx_dump_truck.pcx 290 210 09 20 26 -17 -9
 2222 sprites/pcx/mining_trucks/20xx_dump_truck.pcx 242 290 01 16 36 -28 -9
 2223 sprites/pcx/mining_trucks/20xx_dump_truck.pcx 290 290 09 20 26 -9 -10
  // Wolfpen Ridge 30t dump truck brown 
 2224 sprites/pcx/mining_trucks/20xx_dump_truck.pcx 34 330 01 24 12 -5 -13
 2225 sprites/pcx/mining_trucks/20xx_dump_truck.pcx 66 330 09 20 26 -17 -8
 2226 sprites/pcx/mining_trucks/20xx_dump_truck.pcx 98 330 01 16 36 -18 -8
 2227 sprites/pcx/mining_trucks/20xx_dump_truck.pcx 146 330 09 20 26 -11 -9
 2228 sprites/pcx/mining_trucks/20xx_dump_truck.pcx 178 330 01 24 12 -5 -13
 2229 sprites/pcx/mining_trucks/20xx_dump_truck.pcx 210 330 09 20 26 -17 -9
 2230 sprites/pcx/mining_trucks/20xx_dump_truck.pcx 242 330 01 16 36 -28 -9
 2231 sprites/pcx/mining_trucks/20xx_dump_truck.pcx 290 330 09 20 26 -9 -10
  // Wolfpen Ridge 30t dump truck grey partial
 2232 sprites/pcx/mining_trucks/20xx_dump_truck.pcx 34 370 01 24 12 -5 -13
 2233 sprites/pcx/mining_trucks/20xx_dump_truck.pcx 66 370 09 20 26 -17 -8
 2234 sprites/pcx/mining_trucks/20xx_dump_truck.pcx 98 370 01 16 36 -18 -8
 2235 sprites/pcx/mining_trucks/20xx_dump_truck.pcx 146 370 09 20 26 -11 -9
 2236 sprites/pcx/mining_trucks/20xx_dump_truck.pcx 178 370 01 24 12 -5 -13
 2237 sprites/pcx/mining_trucks/20xx_dump_truck.pcx 210 370 09 20 26 -17 -9
 2238 sprites/pcx/mining_trucks/20xx_dump_truck.pcx 242 370 01 16 36 -28 -9
 2239 sprites/pcx/mining_trucks/20xx_dump_truck.pcx 290 370 09 20 26 -9 -10
  // Wolfpen Ridge 30t dump truck grey
 2240 sprites/pcx/mining_trucks/20xx_dump_truck.pcx 34 410 01 24 12 -5 -13
 2241 sprites/pcx/mining_trucks/20xx_dump_truck.pcx 66 410 09 20 26 -17 -8
 2242 sprites/pcx/mining_trucks/20xx_dump_truck.pcx 98 410 01 16 36 -18 -8
 2243 sprites/pcx/mining_trucks/20xx_dump_truck.pcx 146 410 09 20 26 -11 -9
 2244 sprites/pcx/mining_trucks/20xx_dump_truck.pcx 178 410 01 24 12 -5 -13
 2245 sprites/pcx/mining_trucks/20xx_dump_truck.pcx 210 410 09 20 26 -17 -9
 2246 sprites/pcx/mining_trucks/20xx_dump_truck.pcx 242 410 01 16 36 -28 -9
 2247 sprites/pcx/mining_trucks/20xx_dump_truck.pcx 290 410 09 20 26 -9 -10
 // Wolfpen Ridge 30t dump truck red partial
 2248 sprites/pcx/mining_trucks/20xx_dump_truck.pcx 34 450 01 24 12 -5 -13
 2249 sprites/pcx/mining_trucks/20xx_dump_truck.pcx 66 450 09 20 26 -17 -8
 2250 sprites/pcx/mining_trucks/20xx_dump_truck.pcx 98 450 01 16 36 -18 -8
 2251 sprites/pcx/mining_trucks/20xx_dump_truck.pcx 146 450 09 20 26 -11 -9
 2252 sprites/pcx/mining_trucks/20xx_dump_truck.pcx 178 450 01 24 12 -5 -13
 2253 sprites/pcx/mining_trucks/20xx_dump_truck.pcx 210 450 09 20 26 -17 -9
 2254 sprites/pcx/mining_trucks/20xx_dump_truck.pcx 242 450 01 16 36 -28 -9
 2255 sprites/pcx/mining_trucks/20xx_dump_truck.pcx 290 450 09 20 26 -9 -10
  // Wolfpen Ridge 30t dump truck red
 2256 sprites/pcx/mining_trucks/20xx_dump_truck.pcx 34 490 01 24 12 -5 -13
 2257 sprites/pcx/mining_trucks/20xx_dump_truck.pcx 66 490 09 20 26 -17 -8
 2258 sprites/pcx/mining_trucks/20xx_dump_truck.pcx 98 490 01 16 36 -18 -8
 2259 sprites/pcx/mining_trucks/20xx_dump_truck.pcx 146 490 09 20 26 -11 -9
 2260 sprites/pcx/mining_trucks/20xx_dump_truck.pcx 178 490 01 24 12 -5 -13
 2261 sprites/pcx/mining_trucks/20xx_dump_truck.pcx 210 490 09 20 26 -17 -9
 2262 sprites/pcx/mining_trucks/20xx_dump_truck.pcx 242 490 01 16 36 -28 -9
 2263 sprites/pcx/mining_trucks/20xx_dump_truck.pcx 290 490 09 20 26 -9 -10
 // Wolfpen Ridge 30t dump truck sand partial
 2264 sprites/pcx/mining_trucks/20xx_dump_truck.pcx 34 530 01 24 12 -5 -13
 2265 sprites/pcx/mining_trucks/20xx_dump_truck.pcx 66 530 09 20 26 -17 -8
 2266 sprites/pcx/mining_trucks/20xx_dump_truck.pcx 98 530 01 16 36 -18 -8
 2267 sprites/pcx/mining_trucks/20xx_dump_truck.pcx 146 530 09 20 26 -11 -9
 2268 sprites/pcx/mining_trucks/20xx_dump_truck.pcx 178 530 01 24 12 -5 -13
 2269 sprites/pcx/mining_trucks/20xx_dump_truck.pcx 210 530 09 20 26 -17 -9
 2270 sprites/pcx/mining_trucks/20xx_dump_truck.pcx 242 530 01 16 36 -28 -9
 2271 sprites/pcx/mining_trucks/20xx_dump_truck.pcx 290 530 09 20 26 -9 -10
  // Wolfpen Ridge 30t dump truck sand
 2272 sprites/pcx/mining_trucks/20xx_dump_truck.pcx 34 570 01 24 12 -5 -13
 2273 sprites/pcx/mining_trucks/20xx_dump_truck.pcx 66 570 09 20 26 -17 -8
 2274 sprites/pcx/mining_trucks/20xx_dump_truck.pcx 98 570 01 16 36 -18 -8
 2275 sprites/pcx/mining_trucks/20xx_dump_truck.pcx 146 570 09 20 26 -11 -9
 2276 sprites/pcx/mining_trucks/20xx_dump_truck.pcx 178 570 01 24 12 -5 -13
 2277 sprites/pcx/mining_trucks/20xx_dump_truck.pcx 210 570 09 20 26 -17 -9
 2278 sprites/pcx/mining_trucks/20xx_dump_truck.pcx 242 570 01 16 36 -28 -9
 2279 sprites/pcx/mining_trucks/20xx_dump_truck.pcx 290 570 09 20 26 -9 -10
 2280 * 17	 02 01 A1 03 03  00 00  01 00  02 00    00 00  01 00  02 00  // coal
 2281 * 17	 02 01 A2 03 03  00 00  03 00  04 00    00 00  03 00  04 00  // iron ore
 2282 * 17	 02 01 A3 03 03  00 00  05 00  06 00    00 00  05 00  06 00  // white
 2283 * 17	 02 01 A4 03 03  00 00  07 00  08 00    00 00  07 00  08 00  // brown
 2284 * 17	 02 01 A5 03 03  00 00  09 00  0A 00    00 00  09 00  0A 00  // grey
 2285 * 17	 02 01 A6 03 03  00 00  0B 00  0C 00    00 00  0B 00  0C 00  // red
 2286 * 17	 02 01 A7 03 03  00 00  0D 00  0E 00    00 00  0D 00  0E 00  // sand
 2287 * 4	 01 01 01 04 // buy menu sprites
 2288 * 1	 00
 2289 * 1	 00
 2290 sprites/pcx/mining_trucks/20xx_dump_truck.pcx 370 13 01 12 36 -14 -6
 2291 * 1	 00
 2292 * 9	 02 01 AF 01 01  00 00  00 00
 2293 * 28	 03 01 01 D9 // Action 3
    07 // number of cargos
     01 A1 00
     08 A2 00 
     0E A6 00 // CORE
     18 A6 00 // AORE (bauxite)
     19 A7 00 // SAND
     1A A5 00 // GRVL
     FF AF 00 // buy menu sprites
    A5 00 // default sprites
   
  // --------------------------- end of Dump trucks / Mining Haulers --------------------- //