// Automatically generated by GRFCODEC. Do not modify!
// (Info version 7)
// Format: spritenum pcxfile xpos ypos compression ysize xsize xrel yrel
    0 * 4	 5E 09 00 00
    1 * 147	 08 06 "AP" 12 01 "HEQS (Preview) v0.4" 00 "Heavy equipment "
	 "(Preview) v0.3 in dual company "
	 "colours. Brought to you by"
	 "andythenorth and Richard Wheeler (Zephyris)"
	 "2008" 00

    2 * 134	 00 08 01 20 00 09 // Cargo translation table
      "PASS" "COAL" "MAIL" "OIL_"     // 00 - 03, 01 - 08
      "LVST" "GOOD" "GRAI" "WOOD"     // 04 - 07, 10 - 80
      "IORE" "STEL" "VALU" "PAPR"     // 08 - 0B, 01^ - 08^
      "FOOD" "FRUT" "CORE" "WATR"     // 0C - 0F, 10^ - 80^
      "RUBR" "___A" "___B" "___C"     // 10 - 13, 01^^ - 08^^
      "___D" "___E" "___F" "___G"     // 14 - 17, 10^^ - 80^^
      "___H" "___I" "___J" "WHEA"     // 18 - 1B, 01^^^ - 08^^^
      "GOLD" "MAIZ" "TWOD" "DIAM"     // 1C - 1F, 10^^^ - 80^^^

    3 * 67	 00 01 19 01 01 
      00 00 00  // intro date
      02 20     // reliability
      03 19     // vehicle life
      04 23     // class life
      06 00     // climate
      07 05     // load amount
      08 E0     // speed in mph * 3.2
      09 08     // running cost factor
      0A 48 4C 00 00 13 00 14 28        // running cost base
      0E FF     // sprite ID
      0F 32     // capacity
      10 FF     // cargo type
      11 00     // cost factor
      12 00     // sound effect
      15 38     // speed in mph * 0.8
      16 00 00 00 00    // Bit mask of cargo types available for refitting
      17 16     // Callback flags bit mask
      1A 00     // Refit cost, using 25% of the purchase price cost base
      1B 00     // Retire vehicle early, this many years before the end of phase 2
      1C 02     // Miscellaneous vehicle flags     
      1D FF 03     // Refittable cargo classes 
      1E 01 00     // Non-refittable cargo classes
      1F 60 B3 0A 00   // Long format introduction date 

    4 * 67	 00 01 19 01 0A 00 00 00 02 20 03 11 04 23 06 0F 07 05 08 80 09 1E 0A 48 4C 00 00 13 14 14 18 0E
	 FF 0F 00 10 FF 11 34 12 17 15 20 16 00 00 00 00 17 16 1A 00 1B 00 1C 02 1D FF 03 1E 00 00 1F 60
	 B3 0A 00
    5 * 67	 00 01 19 01 0B 00 00 00 02 20 03 11 04 23 06 0F 07 05 08 80 09 1E 0A 48 4C 00 00 13 14 14 18 0E
	 FF 0F 00 10 FF 11 34 12 17 15 20 16 00 00 00 00 17 16 1A 00 1B 00 1C 02 1D FF 03 1E 00 00 1F 60
	 B3 0A 00
    6 * 67	 00 01 19 01 0C 00 00 00 02 20 03 11 04 23 06 0F 07 05 08 80 09 1E 0A 48 4C 00 00 13 14 14 18 0E
	 FF 0F 00 10 FF 11 34 12 17 15 20 16 00 00 00 00 17 16 1A 00 1B 00 1C 02 1D FF 03 1E 00 00 1F 60
	 B3 0A 00
    7 * 29	 04 01 7F 01 01 "[Generic Large Trailer]" 00


   // ----------- Drawbars for Trailers -------------//
   // Smaller Drawbar
    8 * 67	 00 01 19 01 04 // Action 0
      00 00 00  // intro date
      02 20     // reliability
      03 19     // vehicle life
      04 23     // class life
      06 00     // climate
      07 05     // load amount
      08 E0     // speed in mph * 3.2
      09 08     // running cost factor
      0A 48 4C 00 00 13 00 14 20 // running cost base
      0E FF     // sprite ID
      0F 00     // capacity
      10 FF     // cargo type
      11 00     // cost factor
      12 00     // sound effect
      15 38     // speed in mph * 0.8
      16 00 00 00 00    // Bit mask of cargo types available for refitting
      17 02     // Callback flags bit mask
      1A 00     // Refit cost, using 25% of the purchase price cost base
      1B 00     // Retire vehicle early, this many years before the end of phase 2
      1C 02     // Miscellaneous vehicle flags     
      1D FF 03     // Refittable cargo classes 
      1E 01 00     // Non-refittable cargo classes
      1F 60 B3 0A 00   // Long format introduction date     
    9 * 36	 04 01 7F 01 04 "[Smaller Drawbar for Trailers]" 00
   10 * 4	 01 01 01 08
   11 Y:\Documents\OTTD graphics\HEQS_build\Full HEQS\sprites/drawbar.pcx 34 10 01 24 12 -5 -16
   12 Y:\Documents\OTTD graphics\HEQS_build\Full HEQS\sprites/drawbar.pcx 66 10 09 20 26 -12 -11
   13 Y:\Documents\OTTD graphics\HEQS_build\Full HEQS\sprites/drawbar.pcx 98 10 01 16 36 -18 -8
   14 Y:\Documents\OTTD graphics\HEQS_build\Full HEQS\sprites/drawbar.pcx 146 10 09 20 26 -4 -5
   15 Y:\Documents\OTTD graphics\HEQS_build\Full HEQS\sprites/drawbar.pcx 178 10 01 24 12 -8 -8
   16 Y:\Documents\OTTD graphics\HEQS_build\Full HEQS\sprites/drawbar.pcx 210 10 09 20 26 -26 -4
   17 Y:\Documents\OTTD graphics\HEQS_build\Full HEQS\sprites/drawbar.pcx 242 10 01 16 36 -28 -9
   18 Y:\Documents\OTTD graphics\HEQS_build\Full HEQS\sprites/drawbar.pcx 290 10 09 20 26 -16 -15
   19 * 9	 02 01 BB   01 01   00 00    00 00
   20 * 14	 02 01 AA  // handle callbacks
                 81 0C 00 FF // check variable 0C
                 01 // range
                  05 80 11 11 // vehicle length callback
                 BB 00
   21 * 7	 03 01 01 04 // Action 3
      00  // Number of different cargo types to support  
      AA 00 // default cargo

   // Larger Drawbar
   22 * 67	 00 01 19 01 05 // Action 0
      00 00 00  // intro date
      02 20     // reliability
      03 19     // vehicle life
      04 23     // class life
      06 00     // climate
      07 05     // load amount
      08 E0     // speed in mph * 3.2
      09 08     // running cost factor
      0A 48 4C 00 00 13 00 14 20 // running cost base
      0E FF     // sprite ID
      0F 00     // capacity
      10 FF     // cargo type
      11 00     // cost factor
      12 00     // sound effect
      15 38     // speed in mph * 0.8
      16 00 00 00 00    // Bit mask of cargo types available for refitting
      17 02     // Callback flags bit mask
      1A 00     // Refit cost, using 25% of the purchase price cost base
      1B 00     // Retire vehicle early, this many years before the end of phase 2
      1C 02     // Miscellaneous vehicle flags     
      1D FF 03     // Refittable cargo classes 
      1E 01 00     // Non-refittable cargo classes
      1F 60 B3 0A 00   // Long format introduction date     
   23 * 28	 04 01 7F 01 05 "[Drawbar for Trailers]" 00
   24 * 4	 01 01 01 08
   25 Y:\Documents\OTTD graphics\HEQS_build\Full HEQS\sprites/drawbar.pcx 34 10 01 24 12 -5 -16
   26 Y:\Documents\OTTD graphics\HEQS_build\Full HEQS\sprites/drawbar.pcx 66 10 09 20 26 -12 -11
   27 Y:\Documents\OTTD graphics\HEQS_build\Full HEQS\sprites/drawbar.pcx 98 10 01 16 36 -18 -8
   28 Y:\Documents\OTTD graphics\HEQS_build\Full HEQS\sprites/drawbar.pcx 146 10 09 20 26 -4 -5
   29 Y:\Documents\OTTD graphics\HEQS_build\Full HEQS\sprites/drawbar.pcx 178 10 01 24 12 -8 -8
   30 Y:\Documents\OTTD graphics\HEQS_build\Full HEQS\sprites/drawbar.pcx 210 10 09 20 26 -26 -4
   31 Y:\Documents\OTTD graphics\HEQS_build\Full HEQS\sprites/drawbar.pcx 242 10 01 16 36 -22 -8
   32 Y:\Documents\OTTD graphics\HEQS_build\Full HEQS\sprites/drawbar.pcx 290 10 09 20 26 -10 -10
   33 * 9	 02 01 BB   01 01   00 00    00 00
   34 * 14	 02 01 AA  // handle callbacks
                 81 0C 00 FF // check variable 0C
                 01 // range
                  04 80 11 11 // vehicle length callback
                 BB 00
   35 * 7	 03 01 01 05 // Action 3
      00  // Number of different cargo types to support  
      AA 00 // default cargo

   // ----------------- end trailer drawbars -------------------//


    // ------------ Medium Trailers ------------------ //

   // Medium Trailers

   36 * 67	 00 01 19 01 00
      00 00 00  // intro date
      02 20     // reliability
      03 19     // vehicle life
      04 23     // class life
      06 00     // climate
      07 05     // load amount
      08 E0     // speed in mph * 3.2
      09 08     // running cost factor
      0A 48 4C 00 00 13 00 14 20    // running cost base
      0E FF     // sprite ID
      0F \b19     // capacity
      10 06     // cargo type
      11 00     // cost factor
      12 00     // sound effect
      15 38     // speed in mph * 0.8
      16 00 00 00 00    // Bit mask of cargo types available for refitting
      17 30     // Callback flags bit mask
      1A 00     // Refit cost, using 25% of the purchase price cost base
      1B 00     // Retire vehicle early, this many years before the end of phase 2
      1C 02     // Miscellaneous vehicle flags 
      1D FF 03      // Refittable cargo classes
      1E 01 00      // Non-refittable cargo classes
      1F 60 B3 0A 00    // Long format introduction date     
   37 * 30	 04 01 7F 01 00 "[Generic Medium Trailer]" 00
// define additional text suffixes
   38 * 28	 04 00 81 02 00 D0
            		" (refit 1)" 00	//
               	" (refit 2)" 00	//
   // Medium Goods Trailer
   39 * 4	 01 01 01 08
   // Medium box trailer
   40 Y:\Documents\OTTD graphics\HEQS_build\Full HEQS\sprites\standard_trailers/medium_trailer_tandem.pcx 34 570 01 24 12 -3 -10
   41 Y:\Documents\OTTD graphics\HEQS_build\Full HEQS\sprites\standard_trailers/medium_trailer_tandem.pcx 66 570 01 20 26 -11 -9
   42 Y:\Documents\OTTD graphics\HEQS_build\Full HEQS\sprites\standard_trailers/medium_trailer_tandem.pcx 98 570 01 16 36 -14 -6
   43 Y:\Documents\OTTD graphics\HEQS_build\Full HEQS\sprites\standard_trailers/medium_trailer_tandem.pcx 146 570 01 20 26 -9 -7
   44 Y:\Documents\OTTD graphics\HEQS_build\Full HEQS\sprites\standard_trailers/medium_trailer_tandem.pcx 178 570 01 24 12 -9 -16
   45 Y:\Documents\OTTD graphics\HEQS_build\Full HEQS\sprites\standard_trailers/medium_trailer_tandem.pcx 210 570 01 20 26 -17 -7
   46 Y:\Documents\OTTD graphics\HEQS_build\Full HEQS\sprites\standard_trailers/medium_trailer_tandem.pcx 242 570 01 16 36 -30 -8
   47 Y:\Documents\OTTD graphics\HEQS_build\Full HEQS\sprites\standard_trailers/medium_trailer_tandem.pcx 290 570 01 20 26 -13 -10
   48 * 9	 02 01 05   01 01   00 00    00 00 // box
   // Medium end dump trailer - empty
   49 * 4	 01 01 0D 08
   50 Y:\Documents\OTTD graphics\HEQS_build\Full HEQS\sprites\standard_trailers/medium_trailer_tandem.pcx 34 50 01 24 12 -3 -10
   51 Y:\Documents\OTTD graphics\HEQS_build\Full HEQS\sprites\standard_trailers/medium_trailer_tandem.pcx 66 50 09 20 26 -11 -9
   52 Y:\Documents\OTTD graphics\HEQS_build\Full HEQS\sprites\standard_trailers/medium_trailer_tandem.pcx 98 50 01 16 36 -14 -6
   53 Y:\Documents\OTTD graphics\HEQS_build\Full HEQS\sprites\standard_trailers/medium_trailer_tandem.pcx 146 50 09 20 26 -9 -7
   54 Y:\Documents\OTTD graphics\HEQS_build\Full HEQS\sprites\standard_trailers/medium_trailer_tandem.pcx 178 50 01 24 12 -9 -16
   55 Y:\Documents\OTTD graphics\HEQS_build\Full HEQS\sprites\standard_trailers/medium_trailer_tandem.pcx 210 50 09 20 26 -17 -7
   56 Y:\Documents\OTTD graphics\HEQS_build\Full HEQS\sprites\standard_trailers/medium_trailer_tandem.pcx 242 50 01 16 36 -30 -8
   57 Y:\Documents\OTTD graphics\HEQS_build\Full HEQS\sprites\standard_trailers/medium_trailer_tandem.pcx 290 50 09 20 26 -13 -10
   // Medium end dump - iron ore, loading  !! this isn't iron ore??
   58 Y:\Documents\OTTD graphics\HEQS_build\Full HEQS\sprites\standard_trailers/medium_trailer_tandem.pcx 34 490 01 24 12 -3 -10
   59 Y:\Documents\OTTD graphics\HEQS_build\Full HEQS\sprites\standard_trailers/medium_trailer_tandem.pcx 66 490 09 20 20 -11 -9
   60 Y:\Documents\OTTD graphics\HEQS_build\Full HEQS\sprites\standard_trailers/medium_trailer_tandem.pcx 98 490 01 16 36 -14 -6
   61 Y:\Documents\OTTD graphics\HEQS_build\Full HEQS\sprites\standard_trailers/medium_trailer_tandem.pcx 146 490 09 20 26 -9 -7
   62 Y:\Documents\OTTD graphics\HEQS_build\Full HEQS\sprites\standard_trailers/medium_trailer_tandem.pcx 178 490 01 24 12 -9 -16
   63 Y:\Documents\OTTD graphics\HEQS_build\Full HEQS\sprites\standard_trailers/medium_trailer_tandem.pcx 210 490 09 20 26 -17 -7
   64 Y:\Documents\OTTD graphics\HEQS_build\Full HEQS\sprites\standard_trailers/medium_trailer_tandem.pcx 242 490 01 16 36 -30 -8
   65 Y:\Documents\OTTD graphics\HEQS_build\Full HEQS\sprites\standard_trailers/medium_trailer_tandem.pcx 290 490 09 20 26 -13 -10
   // Medium end dump - iron ore, loaded  !! this isn't iron ore??
   66 Y:\Documents\OTTD graphics\HEQS_build\Full HEQS\sprites\standard_trailers/medium_trailer_tandem.pcx 34 530 01 24 12 -3 -10
   67 Y:\Documents\OTTD graphics\HEQS_build\Full HEQS\sprites\standard_trailers/medium_trailer_tandem.pcx 66 530 09 20 20 -11 -9
   68 Y:\Documents\OTTD graphics\HEQS_build\Full HEQS\sprites\standard_trailers/medium_trailer_tandem.pcx 98 530 01 16 36 -14 -6
   69 Y:\Documents\OTTD graphics\HEQS_build\Full HEQS\sprites\standard_trailers/medium_trailer_tandem.pcx 146 530 09 20 26 -9 -7
   70 Y:\Documents\OTTD graphics\HEQS_build\Full HEQS\sprites\standard_trailers/medium_trailer_tandem.pcx 178 530 01 24 12 -9 -16
   71 Y:\Documents\OTTD graphics\HEQS_build\Full HEQS\sprites\standard_trailers/medium_trailer_tandem.pcx 210 530 09 20 26 -17 -7
   72 Y:\Documents\OTTD graphics\HEQS_build\Full HEQS\sprites\standard_trailers/medium_trailer_tandem.pcx 242 530 01 16 36 -30 -8
   73 Y:\Documents\OTTD graphics\HEQS_build\Full HEQS\sprites\standard_trailers/medium_trailer_tandem.pcx 290 530 09 20 26 -13 -10
   // Medium end dump - coal, loading
   74 Y:\Documents\OTTD graphics\HEQS_build\Full HEQS\sprites\standard_trailers/medium_trailer_tandem.pcx 34 170 01 24 12 -3 -10
   75 Y:\Documents\OTTD graphics\HEQS_build\Full HEQS\sprites\standard_trailers/medium_trailer_tandem.pcx 66 170 09 20 26 -11 -9
   76 Y:\Documents\OTTD graphics\HEQS_build\Full HEQS\sprites\standard_trailers/medium_trailer_tandem.pcx 98 170 01 16 36 -14 -6
   77 Y:\Documents\OTTD graphics\HEQS_build\Full HEQS\sprites\standard_trailers/medium_trailer_tandem.pcx 146 170 09 20 26 -9 -7
   78 Y:\Documents\OTTD graphics\HEQS_build\Full HEQS\sprites\standard_trailers/medium_trailer_tandem.pcx 178 170 01 24 12 -9 -16
   79 Y:\Documents\OTTD graphics\HEQS_build\Full HEQS\sprites\standard_trailers/medium_trailer_tandem.pcx 210 170 09 20 26 -17 -7
   80 Y:\Documents\OTTD graphics\HEQS_build\Full HEQS\sprites\standard_trailers/medium_trailer_tandem.pcx 242 170 01 16 36 -30 -8
   81 Y:\Documents\OTTD graphics\HEQS_build\Full HEQS\sprites\standard_trailers/medium_trailer_tandem.pcx 290 170 09 20 26 -13 -10
   // Medium end dump - coal, loaded
   82 Y:\Documents\OTTD graphics\HEQS_build\Full HEQS\sprites\standard_trailers/medium_trailer_tandem.pcx 34 210 01 24 12 -3 -10
   83 Y:\Documents\OTTD graphics\HEQS_build\Full HEQS\sprites\standard_trailers/medium_trailer_tandem.pcx 66 210 09 20 26 -11 -9
   84 Y:\Documents\OTTD graphics\HEQS_build\Full HEQS\sprites\standard_trailers/medium_trailer_tandem.pcx 98 210 01 16 36 -14 -6
   85 Y:\Documents\OTTD graphics\HEQS_build\Full HEQS\sprites\standard_trailers/medium_trailer_tandem.pcx 146 210 09 20 26 -9 -7
   86 Y:\Documents\OTTD graphics\HEQS_build\Full HEQS\sprites\standard_trailers/medium_trailer_tandem.pcx 178 210 01 24 12 -9 -16
   87 Y:\Documents\OTTD graphics\HEQS_build\Full HEQS\sprites\standard_trailers/medium_trailer_tandem.pcx 210 210 09 20 26 -17 -7
   88 Y:\Documents\OTTD graphics\HEQS_build\Full HEQS\sprites\standard_trailers/medium_trailer_tandem.pcx 242 210 01 16 36 -30 -8
   89 Y:\Documents\OTTD graphics\HEQS_build\Full HEQS\sprites\standard_trailers/medium_trailer_tandem.pcx 290 210 09 20 26 -13 -10
   // Medium end dump - grain, loading
   90 Y:\Documents\OTTD graphics\HEQS_build\Full HEQS\sprites\standard_trailers/medium_trailer_tandem.pcx 34 250 01 24 12 -3 -10
   91 Y:\Documents\OTTD graphics\HEQS_build\Full HEQS\sprites\standard_trailers/medium_trailer_tandem.pcx 66 250 09 20 26 -11 -9
   92 Y:\Documents\OTTD graphics\HEQS_build\Full HEQS\sprites\standard_trailers/medium_trailer_tandem.pcx 98 250 01 16 36 -14 -6
   93 Y:\Documents\OTTD graphics\HEQS_build\Full HEQS\sprites\standard_trailers/medium_trailer_tandem.pcx 146 250 09 20 26 -9 -7
   94 Y:\Documents\OTTD graphics\HEQS_build\Full HEQS\sprites\standard_trailers/medium_trailer_tandem.pcx 178 250 01 24 12 -9 -16
   95 Y:\Documents\OTTD graphics\HEQS_build\Full HEQS\sprites\standard_trailers/medium_trailer_tandem.pcx 210 250 09 20 26 -17 -7
   96 Y:\Documents\OTTD graphics\HEQS_build\Full HEQS\sprites\standard_trailers/medium_trailer_tandem.pcx 242 250 01 16 36 -30 -8
   97 Y:\Documents\OTTD graphics\HEQS_build\Full HEQS\sprites\standard_trailers/medium_trailer_tandem.pcx 290 250 09 20 26 -13 -10
  // Medium end dump - grain, loaded
   98 Y:\Documents\OTTD graphics\HEQS_build\Full HEQS\sprites\standard_trailers/medium_trailer_tandem.pcx 34 290 01 24 12 -3 -10
   99 Y:\Documents\OTTD graphics\HEQS_build\Full HEQS\sprites\standard_trailers/medium_trailer_tandem.pcx 66 290 09 20 26 -11 -9
  100 Y:\Documents\OTTD graphics\HEQS_build\Full HEQS\sprites\standard_trailers/medium_trailer_tandem.pcx 98 290 01 16 36 -14 -6
  101 Y:\Documents\OTTD graphics\HEQS_build\Full HEQS\sprites\standard_trailers/medium_trailer_tandem.pcx 146 290 09 20 26 -9 -7
  102 Y:\Documents\OTTD graphics\HEQS_build\Full HEQS\sprites\standard_trailers/medium_trailer_tandem.pcx 178 290 01 24 12 -9 -16
  103 Y:\Documents\OTTD graphics\HEQS_build\Full HEQS\sprites\standard_trailers/medium_trailer_tandem.pcx 210 290 09 20 26 -17 -7
  104 Y:\Documents\OTTD graphics\HEQS_build\Full HEQS\sprites\standard_trailers/medium_trailer_tandem.pcx 242 290 01 16 36 -30 -8
  105 Y:\Documents\OTTD graphics\HEQS_build\Full HEQS\sprites\standard_trailers/medium_trailer_tandem.pcx 290 290 09 20 26 -13 -10
  // Medium end dump - clay, loading
  106 Y:\Documents\OTTD graphics\HEQS_build\Full HEQS\sprites\standard_trailers/medium_trailer_tandem.pcx 34 410 01 24 12 -3 -10
  107 Y:\Documents\OTTD graphics\HEQS_build\Full HEQS\sprites\standard_trailers/medium_trailer_tandem.pcx 66 410 09 20 26 -11 -9
  108 Y:\Documents\OTTD graphics\HEQS_build\Full HEQS\sprites\standard_trailers/medium_trailer_tandem.pcx 98 410 01 16 36 -14 -6
  109 Y:\Documents\OTTD graphics\HEQS_build\Full HEQS\sprites\standard_trailers/medium_trailer_tandem.pcx 146 410 09 20 26 -9 -7
  110 Y:\Documents\OTTD graphics\HEQS_build\Full HEQS\sprites\standard_trailers/medium_trailer_tandem.pcx 178 410 01 24 12 -9 -16
  111 Y:\Documents\OTTD graphics\HEQS_build\Full HEQS\sprites\standard_trailers/medium_trailer_tandem.pcx 210 410 09 20 26 -17 -7
  112 Y:\Documents\OTTD graphics\HEQS_build\Full HEQS\sprites\standard_trailers/medium_trailer_tandem.pcx 242 410 01 16 36 -30 -8
  113 Y:\Documents\OTTD graphics\HEQS_build\Full HEQS\sprites\standard_trailers/medium_trailer_tandem.pcx 290 410 09 20 26 -13 -10
  // Medium end dump - clay, loaded
  114 Y:\Documents\OTTD graphics\HEQS_build\Full HEQS\sprites\standard_trailers/medium_trailer_tandem.pcx 34 450 01 24 12 -3 -10
  115 Y:\Documents\OTTD graphics\HEQS_build\Full HEQS\sprites\standard_trailers/medium_trailer_tandem.pcx 66 450 09 20 26 -11 -9
  116 Y:\Documents\OTTD graphics\HEQS_build\Full HEQS\sprites\standard_trailers/medium_trailer_tandem.pcx 98 450 01 16 36 -14 -6
  117 Y:\Documents\OTTD graphics\HEQS_build\Full HEQS\sprites\standard_trailers/medium_trailer_tandem.pcx 146 450 09 20 26 -9 -7
  118 Y:\Documents\OTTD graphics\HEQS_build\Full HEQS\sprites\standard_trailers/medium_trailer_tandem.pcx 178 450 01 24 12 -9 -16
  119 Y:\Documents\OTTD graphics\HEQS_build\Full HEQS\sprites\standard_trailers/medium_trailer_tandem.pcx 210 450 09 20 26 -17 -7
  120 Y:\Documents\OTTD graphics\HEQS_build\Full HEQS\sprites\standard_trailers/medium_trailer_tandem.pcx 242 450 01 16 36 -30 -8
  121 Y:\Documents\OTTD graphics\HEQS_build\Full HEQS\sprites\standard_trailers/medium_trailer_tandem.pcx 290 450 09 20 26 -13 -10
  // Medium end dump - copper ore, loading
  122 Y:\Documents\OTTD graphics\HEQS_build\Full HEQS\sprites\standard_trailers/medium_trailer_tandem.pcx 34 330 01 24 12 -3 -10
  123 Y:\Documents\OTTD graphics\HEQS_build\Full HEQS\sprites\standard_trailers/medium_trailer_tandem.pcx 66 330 09 20 26 -11 -9
  124 Y:\Documents\OTTD graphics\HEQS_build\Full HEQS\sprites\standard_trailers/medium_trailer_tandem.pcx 98 330 01 16 36 -14 -6
  125 Y:\Documents\OTTD graphics\HEQS_build\Full HEQS\sprites\standard_trailers/medium_trailer_tandem.pcx 146 330 09 20 26 -9 -7
  126 Y:\Documents\OTTD graphics\HEQS_build\Full HEQS\sprites\standard_trailers/medium_trailer_tandem.pcx 178 330 01 24 12 -9 -16
  127 Y:\Documents\OTTD graphics\HEQS_build\Full HEQS\sprites\standard_trailers/medium_trailer_tandem.pcx 210 330 09 20 26 -17 -7
  128 Y:\Documents\OTTD graphics\HEQS_build\Full HEQS\sprites\standard_trailers/medium_trailer_tandem.pcx 242 330 01 16 36 -30 -8
  129 Y:\Documents\OTTD graphics\HEQS_build\Full HEQS\sprites\standard_trailers/medium_trailer_tandem.pcx 290 330 09 20 26 -13 -10
  // Medium end dump - copper ore, loaded
  130 Y:\Documents\OTTD graphics\HEQS_build\Full HEQS\sprites\standard_trailers/medium_trailer_tandem.pcx 34 370 01 24 12 -3 -10
  131 Y:\Documents\OTTD graphics\HEQS_build\Full HEQS\sprites\standard_trailers/medium_trailer_tandem.pcx 66 370 09 20 26 -11 -9
  132 Y:\Documents\OTTD graphics\HEQS_build\Full HEQS\sprites\standard_trailers/medium_trailer_tandem.pcx 98 370 01 16 36 -14 -6
  133 Y:\Documents\OTTD graphics\HEQS_build\Full HEQS\sprites\standard_trailers/medium_trailer_tandem.pcx 146 370 09 20 26 -9 -7
  134 Y:\Documents\OTTD graphics\HEQS_build\Full HEQS\sprites\standard_trailers/medium_trailer_tandem.pcx 178 370 01 24 12 -9 -16
  135 Y:\Documents\OTTD graphics\HEQS_build\Full HEQS\sprites\standard_trailers/medium_trailer_tandem.pcx 210 370 09 20 26 -17 -7
  136 Y:\Documents\OTTD graphics\HEQS_build\Full HEQS\sprites\standard_trailers/medium_trailer_tandem.pcx 242 370 01 16 36 -30 -8
  137 Y:\Documents\OTTD graphics\HEQS_build\Full HEQS\sprites\standard_trailers/medium_trailer_tandem.pcx 290 370 09 20 26 -13 -10
  // Medium end dump - gravel, loading
  138 Y:\Documents\OTTD graphics\HEQS_build\Full HEQS\sprites\standard_trailers/medium_trailer_tandem.pcx 34 90 01 24 12 -3 -10
  139 Y:\Documents\OTTD graphics\HEQS_build\Full HEQS\sprites\standard_trailers/medium_trailer_tandem.pcx 66 90 09 20 26 -11 -9
  140 Y:\Documents\OTTD graphics\HEQS_build\Full HEQS\sprites\standard_trailers/medium_trailer_tandem.pcx 98 90 01 16 36 -14 -6
  141 Y:\Documents\OTTD graphics\HEQS_build\Full HEQS\sprites\standard_trailers/medium_trailer_tandem.pcx 146 90 09 20 26 -9 -7
  142 Y:\Documents\OTTD graphics\HEQS_build\Full HEQS\sprites\standard_trailers/medium_trailer_tandem.pcx 178 90 01 24 12 -9 -16
  143 Y:\Documents\OTTD graphics\HEQS_build\Full HEQS\sprites\standard_trailers/medium_trailer_tandem.pcx 210 90 09 20 26 -17 -7
  144 Y:\Documents\OTTD graphics\HEQS_build\Full HEQS\sprites\standard_trailers/medium_trailer_tandem.pcx 242 90 01 16 36 -30 -8
  145 Y:\Documents\OTTD graphics\HEQS_build\Full HEQS\sprites\standard_trailers/medium_trailer_tandem.pcx 290 90 09 20 26 -13 -10
  // Medium end dump - gravel, loaded
  146 Y:\Documents\OTTD graphics\HEQS_build\Full HEQS\sprites\standard_trailers/medium_trailer_tandem.pcx 34 130 01 24 12 -3 -10
  147 Y:\Documents\OTTD graphics\HEQS_build\Full HEQS\sprites\standard_trailers/medium_trailer_tandem.pcx 66 130 09 20 26 -11 -9
  148 Y:\Documents\OTTD graphics\HEQS_build\Full HEQS\sprites\standard_trailers/medium_trailer_tandem.pcx 98 130 01 16 36 -14 -6
  149 Y:\Documents\OTTD graphics\HEQS_build\Full HEQS\sprites\standard_trailers/medium_trailer_tandem.pcx 146 130 09 20 26 -9 -7
  150 Y:\Documents\OTTD graphics\HEQS_build\Full HEQS\sprites\standard_trailers/medium_trailer_tandem.pcx 178 130 01 24 12 -9 -16
  151 Y:\Documents\OTTD graphics\HEQS_build\Full HEQS\sprites\standard_trailers/medium_trailer_tandem.pcx 210 130 09 20 26 -17 -7
  152 Y:\Documents\OTTD graphics\HEQS_build\Full HEQS\sprites\standard_trailers/medium_trailer_tandem.pcx 242 130 01 16 36 -30 -8
  153 Y:\Documents\OTTD graphics\HEQS_build\Full HEQS\sprites\standard_trailers/medium_trailer_tandem.pcx 290 130 09 20 26 -13 -10
  154 * 17	 02 01 08  03 03    00 00  01 00  02 00    00 00  01 00  02 00 // iron ore
  155 * 17	 02 01 01  03 03    00 00  03 00  04 00    00 00  03 00  04 00 // coal
  156 * 17	 02 01 06  03 03    00 00  05 00  06 00    00 00  05 00  06 00 // grain
  157 * 17	 02 01 0E  03 03    00 00  07 00  08 00    00 00  07 00  08 00 // brown 
  158 * 17	 02 01 17  03 03    00 00  09 00  0A 00    00 00  09 00  0A 00 // red
  159 * 17	 02 01 11  03 03    00 00  0B 00  0C 00    00 00  0B 00  0C 00 // grey
  // Medium flat trailer / (also stake trailer ??)
  160 * 4	 01 01 0C 08
  // Medium flat trailer - empty
  161 Y:\Documents\OTTD graphics\HEQS_build\Full HEQS\sprites\standard_trailers/medium_trailer_tandem.pcx 34 730 01 24 12 -3 -10
  162 Y:\Documents\OTTD graphics\HEQS_build\Full HEQS\sprites\standard_trailers/medium_trailer_tandem.pcx 66 730 09 20 26 -11 -9
  163 Y:\Documents\OTTD graphics\HEQS_build\Full HEQS\sprites\standard_trailers/medium_trailer_tandem.pcx 98 730 01 16 36 -14 -6
  164 Y:\Documents\OTTD graphics\HEQS_build\Full HEQS\sprites\standard_trailers/medium_trailer_tandem.pcx 146 730 09 20 26 -9 -7
  165 Y:\Documents\OTTD graphics\HEQS_build\Full HEQS\sprites\standard_trailers/medium_trailer_tandem.pcx 178 730 01 24 12 -9 -16
  166 Y:\Documents\OTTD graphics\HEQS_build\Full HEQS\sprites\standard_trailers/medium_trailer_tandem.pcx 210 730 09 20 26 -17 -7
  167 Y:\Documents\OTTD graphics\HEQS_build\Full HEQS\sprites\standard_trailers/medium_trailer_tandem.pcx 242 730 01 16 36 -30 -8
  168 Y:\Documents\OTTD graphics\HEQS_build\Full HEQS\sprites\standard_trailers/medium_trailer_tandem.pcx 290 730 09 20 26 -13 -10
  // Medium flat trailer - steel, loading  
  169 Y:\Documents\OTTD graphics\HEQS_build\Full HEQS\sprites\standard_trailers/medium_trailer_tandem.pcx 34 970 01 24 12 -3 -10
  170 Y:\Documents\OTTD graphics\HEQS_build\Full HEQS\sprites\standard_trailers/medium_trailer_tandem.pcx 66 970 09 20 26 -11 -9
  171 Y:\Documents\OTTD graphics\HEQS_build\Full HEQS\sprites\standard_trailers/medium_trailer_tandem.pcx 98 970 01 16 36 -14 -6
  172 Y:\Documents\OTTD graphics\HEQS_build\Full HEQS\sprites\standard_trailers/medium_trailer_tandem.pcx 146 970 09 20 26 -9 -7
  173 Y:\Documents\OTTD graphics\HEQS_build\Full HEQS\sprites\standard_trailers/medium_trailer_tandem.pcx 178 970 01 24 12 -9 -16
  174 Y:\Documents\OTTD graphics\HEQS_build\Full HEQS\sprites\standard_trailers/medium_trailer_tandem.pcx 210 970 09 20 26 -17 -7
  175 Y:\Documents\OTTD graphics\HEQS_build\Full HEQS\sprites\standard_trailers/medium_trailer_tandem.pcx 242 970 01 16 36 -30 -8
  176 Y:\Documents\OTTD graphics\HEQS_build\Full HEQS\sprites\standard_trailers/medium_trailer_tandem.pcx 290 970 09 20 26 -13 -10
  // Medium flat trailer - steel, loaded  
  177 Y:\Documents\OTTD graphics\HEQS_build\Full HEQS\sprites\standard_trailers/medium_trailer_tandem.pcx 34 970 01 24 12 -3 -10
  178 Y:\Documents\OTTD graphics\HEQS_build\Full HEQS\sprites\standard_trailers/medium_trailer_tandem.pcx 66 970 09 20 26 -11 -9
  179 Y:\Documents\OTTD graphics\HEQS_build\Full HEQS\sprites\standard_trailers/medium_trailer_tandem.pcx 98 970 01 16 36 -14 -6
  180 Y:\Documents\OTTD graphics\HEQS_build\Full HEQS\sprites\standard_trailers/medium_trailer_tandem.pcx 146 970 09 20 26 -9 -7
  181 Y:\Documents\OTTD graphics\HEQS_build\Full HEQS\sprites\standard_trailers/medium_trailer_tandem.pcx 178 970 01 24 12 -9 -16
  182 Y:\Documents\OTTD graphics\HEQS_build\Full HEQS\sprites\standard_trailers/medium_trailer_tandem.pcx 210 970 09 20 26 -17 -7
  183 Y:\Documents\OTTD graphics\HEQS_build\Full HEQS\sprites\standard_trailers/medium_trailer_tandem.pcx 242 970 01 16 36 -30 -8
  184 Y:\Documents\OTTD graphics\HEQS_build\Full HEQS\sprites\standard_trailers/medium_trailer_tandem.pcx 290 970 09 20 26 -13 -10
  // Medium flat trailer - paper, loading  
  185 Y:\Documents\OTTD graphics\HEQS_build\Full HEQS\sprites\standard_trailers/medium_trailer_tandem.pcx 34 1130 01 24 12 -3 -10
  186 Y:\Documents\OTTD graphics\HEQS_build\Full HEQS\sprites\standard_trailers/medium_trailer_tandem.pcx 66 1130 09 20 26 -11 -9
  187 Y:\Documents\OTTD graphics\HEQS_build\Full HEQS\sprites\standard_trailers/medium_trailer_tandem.pcx 98 1130 01 16 36 -14 -6
  188 Y:\Documents\OTTD graphics\HEQS_build\Full HEQS\sprites\standard_trailers/medium_trailer_tandem.pcx 146 1130 09 20 26 -9 -7
  189 Y:\Documents\OTTD graphics\HEQS_build\Full HEQS\sprites\standard_trailers/medium_trailer_tandem.pcx 178 1130 01 24 12 -9 -16
  190 Y:\Documents\OTTD graphics\HEQS_build\Full HEQS\sprites\standard_trailers/medium_trailer_tandem.pcx 210 1130 09 20 26 -17 -7
  191 Y:\Documents\OTTD graphics\HEQS_build\Full HEQS\sprites\standard_trailers/medium_trailer_tandem.pcx 242 1130 01 16 36 -30 -8
  192 Y:\Documents\OTTD graphics\HEQS_build\Full HEQS\sprites\standard_trailers/medium_trailer_tandem.pcx 290 1130 09 20 26 -13 -10
  // Medium flat trailer - paper, loaded  
  193 Y:\Documents\OTTD graphics\HEQS_build\Full HEQS\sprites\standard_trailers/medium_trailer_tandem.pcx 34 1130 01 24 12 -3 -10
  194 Y:\Documents\OTTD graphics\HEQS_build\Full HEQS\sprites\standard_trailers/medium_trailer_tandem.pcx 66 1130 09 20 26 -11 -9
  195 Y:\Documents\OTTD graphics\HEQS_build\Full HEQS\sprites\standard_trailers/medium_trailer_tandem.pcx 98 1130 01 16 36 -14 -6
  196 Y:\Documents\OTTD graphics\HEQS_build\Full HEQS\sprites\standard_trailers/medium_trailer_tandem.pcx 146 1130 09 20 26 -9 -7
  197 Y:\Documents\OTTD graphics\HEQS_build\Full HEQS\sprites\standard_trailers/medium_trailer_tandem.pcx 178 1130 01 24 12 -9 -16
  198 Y:\Documents\OTTD graphics\HEQS_build\Full HEQS\sprites\standard_trailers/medium_trailer_tandem.pcx 210 1130 09 20 26 -17 -7
  199 Y:\Documents\OTTD graphics\HEQS_build\Full HEQS\sprites\standard_trailers/medium_trailer_tandem.pcx 242 1130 01 16 36 -30 -8
  200 Y:\Documents\OTTD graphics\HEQS_build\Full HEQS\sprites\standard_trailers/medium_trailer_tandem.pcx 290 1130 09 20 26 -13 -10
  // Medium stake trailer - empty
  201 Y:\Documents\OTTD graphics\HEQS_build\Full HEQS\sprites\standard_trailers/medium_trailer_tandem.pcx 34 610 01 24 12 -3 -10
  202 Y:\Documents\OTTD graphics\HEQS_build\Full HEQS\sprites\standard_trailers/medium_trailer_tandem.pcx 66 610 09 20 26 -11 -9
  203 Y:\Documents\OTTD graphics\HEQS_build\Full HEQS\sprites\standard_trailers/medium_trailer_tandem.pcx 98 610 01 16 36 -14 -6
  204 Y:\Documents\OTTD graphics\HEQS_build\Full HEQS\sprites\standard_trailers/medium_trailer_tandem.pcx 146 610 09 20 26 -9 -7
  205 Y:\Documents\OTTD graphics\HEQS_build\Full HEQS\sprites\standard_trailers/medium_trailer_tandem.pcx 178 610 01 24 12 -9 -16
  206 Y:\Documents\OTTD graphics\HEQS_build\Full HEQS\sprites\standard_trailers/medium_trailer_tandem.pcx 210 610 09 20 26 -17 -7
  207 Y:\Documents\OTTD graphics\HEQS_build\Full HEQS\sprites\standard_trailers/medium_trailer_tandem.pcx 242 610 01 16 36 -30 -8
  208 Y:\Documents\OTTD graphics\HEQS_build\Full HEQS\sprites\standard_trailers/medium_trailer_tandem.pcx 290 610 09 20 26 -13 -10
  // Medium stake trailer - Wood, loading  
  209 Y:\Documents\OTTD graphics\HEQS_build\Full HEQS\sprites\standard_trailers/medium_trailer_tandem.pcx 34 650 01 24 12 -3 -10
  210 Y:\Documents\OTTD graphics\HEQS_build\Full HEQS\sprites\standard_trailers/medium_trailer_tandem.pcx 66 650 09 20 26 -11 -9
  211 Y:\Documents\OTTD graphics\HEQS_build\Full HEQS\sprites\standard_trailers/medium_trailer_tandem.pcx 98 650 01 16 36 -14 -6
  212 Y:\Documents\OTTD graphics\HEQS_build\Full HEQS\sprites\standard_trailers/medium_trailer_tandem.pcx 146 650 09 20 26 -9 -7
  213 Y:\Documents\OTTD graphics\HEQS_build\Full HEQS\sprites\standard_trailers/medium_trailer_tandem.pcx 178 650 01 24 12 -9 -16
  214 Y:\Documents\OTTD graphics\HEQS_build\Full HEQS\sprites\standard_trailers/medium_trailer_tandem.pcx 210 650 09 20 26 -17 -7
  215 Y:\Documents\OTTD graphics\HEQS_build\Full HEQS\sprites\standard_trailers/medium_trailer_tandem.pcx 242 650 01 16 36 -30 -8
  216 Y:\Documents\OTTD graphics\HEQS_build\Full HEQS\sprites\standard_trailers/medium_trailer_tandem.pcx 290 650 09 20 26 -13 -10
  // Medium stake trailer - Wood, loaded  
  217 Y:\Documents\OTTD graphics\HEQS_build\Full HEQS\sprites\standard_trailers/medium_trailer_tandem.pcx 34 690 01 24 12 -3 -10
  218 Y:\Documents\OTTD graphics\HEQS_build\Full HEQS\sprites\standard_trailers/medium_trailer_tandem.pcx 66 690 09 20 26 -11 -9
  219 Y:\Documents\OTTD graphics\HEQS_build\Full HEQS\sprites\standard_trailers/medium_trailer_tandem.pcx 98 690 01 16 36 -14 -6
  220 Y:\Documents\OTTD graphics\HEQS_build\Full HEQS\sprites\standard_trailers/medium_trailer_tandem.pcx 146 690 09 20 26 -9 -7
  221 Y:\Documents\OTTD graphics\HEQS_build\Full HEQS\sprites\standard_trailers/medium_trailer_tandem.pcx 178 690 01 24 12 -9 -16
  222 Y:\Documents\OTTD graphics\HEQS_build\Full HEQS\sprites\standard_trailers/medium_trailer_tandem.pcx 210 690 09 20 26 -17 -7
  223 Y:\Documents\OTTD graphics\HEQS_build\Full HEQS\sprites\standard_trailers/medium_trailer_tandem.pcx 242 690 01 16 36 -30 -8
  224 Y:\Documents\OTTD graphics\HEQS_build\Full HEQS\sprites\standard_trailers/medium_trailer_tandem.pcx 290 690 09 20 26 -13 -10
 // Medium flat trailer - livestock, loading  
  225 Y:\Documents\OTTD graphics\HEQS_build\Full HEQS\sprites\standard_trailers/medium_trailer_tandem.pcx 34 810 01 24 12 -3 -10
  226 Y:\Documents\OTTD graphics\HEQS_build\Full HEQS\sprites\standard_trailers/medium_trailer_tandem.pcx 66 810 09 20 26 -11 -9
  227 Y:\Documents\OTTD graphics\HEQS_build\Full HEQS\sprites\standard_trailers/medium_trailer_tandem.pcx 98 810 01 16 36 -14 -6
  228 Y:\Documents\OTTD graphics\HEQS_build\Full HEQS\sprites\standard_trailers/medium_trailer_tandem.pcx 146 810 09 20 26 -9 -7
  229 Y:\Documents\OTTD graphics\HEQS_build\Full HEQS\sprites\standard_trailers/medium_trailer_tandem.pcx 178 810 01 24 12 -9 -16
  230 Y:\Documents\OTTD graphics\HEQS_build\Full HEQS\sprites\standard_trailers/medium_trailer_tandem.pcx 210 810 09 20 26 -17 -7
  231 Y:\Documents\OTTD graphics\HEQS_build\Full HEQS\sprites\standard_trailers/medium_trailer_tandem.pcx 242 810 01 16 36 -30 -8
  232 Y:\Documents\OTTD graphics\HEQS_build\Full HEQS\sprites\standard_trailers/medium_trailer_tandem.pcx 290 810 09 20 26 -13 -10
 // Medium flat trailer - livestock, loaded
  233 Y:\Documents\OTTD graphics\HEQS_build\Full HEQS\sprites\standard_trailers/medium_trailer_tandem.pcx 34 810 01 24 12 -3 -10
  234 Y:\Documents\OTTD graphics\HEQS_build\Full HEQS\sprites\standard_trailers/medium_trailer_tandem.pcx 66 810 09 20 26 -11 -9
  235 Y:\Documents\OTTD graphics\HEQS_build\Full HEQS\sprites\standard_trailers/medium_trailer_tandem.pcx 98 810 01 16 36 -14 -6
  236 Y:\Documents\OTTD graphics\HEQS_build\Full HEQS\sprites\standard_trailers/medium_trailer_tandem.pcx 146 810 09 20 26 -9 -7
  237 Y:\Documents\OTTD graphics\HEQS_build\Full HEQS\sprites\standard_trailers/medium_trailer_tandem.pcx 178 810 01 24 12 -9 -16
  238 Y:\Documents\OTTD graphics\HEQS_build\Full HEQS\sprites\standard_trailers/medium_trailer_tandem.pcx 210 810 09 20 26 -17 -7
  239 Y:\Documents\OTTD graphics\HEQS_build\Full HEQS\sprites\standard_trailers/medium_trailer_tandem.pcx 242 810 01 16 36 -30 -8
  240 Y:\Documents\OTTD graphics\HEQS_build\Full HEQS\sprites\standard_trailers/medium_trailer_tandem.pcx 290 810 09 20 26 -13 -10
 // Medium flat trailer - copper, loading  
  241 Y:\Documents\OTTD graphics\HEQS_build\Full HEQS\sprites\standard_trailers/medium_trailer_tandem.pcx 34 10 01 24 12 -3 -10
  242 Y:\Documents\OTTD graphics\HEQS_build\Full HEQS\sprites\standard_trailers/medium_trailer_tandem.pcx 66 10 09 20 26 -11 -9
  243 Y:\Documents\OTTD graphics\HEQS_build\Full HEQS\sprites\standard_trailers/medium_trailer_tandem.pcx 98 10 01 16 36 -14 -6
  244 Y:\Documents\OTTD graphics\HEQS_build\Full HEQS\sprites\standard_trailers/medium_trailer_tandem.pcx 146 10 09 20 26 -9 -7
  245 Y:\Documents\OTTD graphics\HEQS_build\Full HEQS\sprites\standard_trailers/medium_trailer_tandem.pcx 178 10 01 24 12 -9 -16
  246 Y:\Documents\OTTD graphics\HEQS_build\Full HEQS\sprites\standard_trailers/medium_trailer_tandem.pcx 210 10 09 20 26 -17 -7
  247 Y:\Documents\OTTD graphics\HEQS_build\Full HEQS\sprites\standard_trailers/medium_trailer_tandem.pcx 242 10 01 16 36 -30 -8
  248 Y:\Documents\OTTD graphics\HEQS_build\Full HEQS\sprites\standard_trailers/medium_trailer_tandem.pcx 290 10 09 20 26 -13 -10
 // Medium flat trailer - copper, loaded  
  249 Y:\Documents\OTTD graphics\HEQS_build\Full HEQS\sprites\standard_trailers/medium_trailer_tandem.pcx 34 10 01 24 12 -3 -10
  250 Y:\Documents\OTTD graphics\HEQS_build\Full HEQS\sprites\standard_trailers/medium_trailer_tandem.pcx 66 10 09 20 26 -11 -9
  251 Y:\Documents\OTTD graphics\HEQS_build\Full HEQS\sprites\standard_trailers/medium_trailer_tandem.pcx 98 10 01 16 36 -14 -6
  252 Y:\Documents\OTTD graphics\HEQS_build\Full HEQS\sprites\standard_trailers/medium_trailer_tandem.pcx 146 10 09 20 26 -9 -7
  253 Y:\Documents\OTTD graphics\HEQS_build\Full HEQS\sprites\standard_trailers/medium_trailer_tandem.pcx 178 10 01 24 12 -9 -16
  254 Y:\Documents\OTTD graphics\HEQS_build\Full HEQS\sprites\standard_trailers/medium_trailer_tandem.pcx 210 10 09 20 26 -17 -7
  255 Y:\Documents\OTTD graphics\HEQS_build\Full HEQS\sprites\standard_trailers/medium_trailer_tandem.pcx 242 10 01 16 36 -30 -8
  256 Y:\Documents\OTTD graphics\HEQS_build\Full HEQS\sprites\standard_trailers/medium_trailer_tandem.pcx 290 10 09 20 26 -13 -10
  257 * 17	 02 01 09  03 03   00 00  01 00  02 00    00 00  01 00  02 00
  258 * 17	 02 01 0B  03 03   00 00  03 00  04 00    00 00  03 00  04 00
  259 * 17	 02 01 07  03 03   05 00  06 00  07 00    05 00  06 00  07 00
  260 * 17	 02 01 04  03 03   00 00  07 00  08 00    00 00  07 00  08 00
  261 * 17	 02 01 18  03 03   00 00  09 00  0A 00    00 00  09 00  0A 00 
  262 * 17	 02 01 19  03 03   00 00  09 00  0B 00    00 00  09 00  0B 00 // copper ? 
  // Medium tank trailer
  263 * 4	 01 01 01 08
  264 Y:\Documents\OTTD graphics\HEQS_build\Full HEQS\sprites\standard_trailers/medium_trailer_tandem.pcx 34 10 01 24 12 -3 -10
  265 Y:\Documents\OTTD graphics\HEQS_build\Full HEQS\sprites\standard_trailers/medium_trailer_tandem.pcx 66 10 09 20 26 -11 -9
  266 Y:\Documents\OTTD graphics\HEQS_build\Full HEQS\sprites\standard_trailers/medium_trailer_tandem.pcx 98 10 01 16 36 -14 -6
  267 Y:\Documents\OTTD graphics\HEQS_build\Full HEQS\sprites\standard_trailers/medium_trailer_tandem.pcx 146 10 09 20 26 -9 -7
  268 Y:\Documents\OTTD graphics\HEQS_build\Full HEQS\sprites\standard_trailers/medium_trailer_tandem.pcx 178 10 01 24 12 -9 -16
  269 Y:\Documents\OTTD graphics\HEQS_build\Full HEQS\sprites\standard_trailers/medium_trailer_tandem.pcx 210 10 09 20 26 -17 -7
  270 Y:\Documents\OTTD graphics\HEQS_build\Full HEQS\sprites\standard_trailers/medium_trailer_tandem.pcx 242 10 01 16 36 -30 -8
  271 Y:\Documents\OTTD graphics\HEQS_build\Full HEQS\sprites\standard_trailers/medium_trailer_tandem.pcx 290 10 09 20 26 -13 -10
  272 * 9	 02 01 03   01 01    00 00    00 00
  273 * 4	 01 01 01 08
  274 Y:\Documents\OTTD graphics\HEQS_build\Full HEQS\sprites/heqs2.pcx 770 424 01 18 8 -3 -10
  275 Y:\Documents\OTTD graphics\HEQS_build\Full HEQS\sprites/heqs2.pcx 2 456 09 16 20 -14 -7
  276 Y:\Documents\OTTD graphics\HEQS_build\Full HEQS\sprites/heqs2.pcx 34 456 01 12 28 -14 -6
  277 Y:\Documents\OTTD graphics\HEQS_build\Full HEQS\sprites/heqs2.pcx 82 456 09 16 20 -6 -8
  278 Y:\Documents\OTTD graphics\HEQS_build\Full HEQS\sprites/heqs2.pcx 114 456 01 18 8 -3 -10
  279 Y:\Documents\OTTD graphics\HEQS_build\Full HEQS\sprites/heqs2.pcx 130 456 09 16 20 -14 -8
  280 Y:\Documents\OTTD graphics\HEQS_build\Full HEQS\sprites/heqs2.pcx 162 456 01 12 28 -14 -6
  281 Y:\Documents\OTTD graphics\HEQS_build\Full HEQS\sprites/heqs2.pcx 210 456 09 16 20 -6 -7
  282 * 9	 02 01 0C   01 01    00 00    00 00
  // Var action 2 ID schema: B = bulk, C = Covered, F = Flat
  283 * 18	 02 01 AC  // text suffixes
                 81 F2 00 FF //
                 02 // range
                  00 80 00 00 // 
                  01 80 01 01 //  
                 FF 80
  // AB, AA contain some code to allow refit to multiple cargos, this is unused until additional sprites are drawn.
//!!Warning (100): Default ID appears earlier in sprite.
//!!Warning (100): Default ID appears earlier in sprite.
  284 * 18	 02 01 AB  // choose sprites according to refit
                 81 F2 00 FF //
                 02 // range
                  05 00 00 00 // 
                  05 00 01 01 // 
                 05 00 // default 
  285 * 14	 02 01 AA  // handle callbacks
                 81 0C 00 FF //
                 01 // range
                  04 80 11 11 // vehicle length CB
                  //AC 00 19 19 // text suffix CB 
                 05 00 // graphics
  286 * 49	 03 01 01 00 // Action 3
    0E // Number of different cargo types to support (!! Hex) 
    01 01 00 // coal
    03 03 00 // oil
    04 04 00 // livestock
    06 06 00 // grain 
    07 07 00 // wood
    08 08 00 // iron ore
	  09 09 00 // steel
	  0B 0B 00 // paper
	  0E 0E 00 // copper ore
	  0F 03 00 // water
	  10 03 00 // rubber
	  1B 06 00 // wheat
	  1D 06 00 // maize
	  1E 07 00 // tropical wood
	  AA 00 // default (box trailer)

   // ------------ end of Medium Trailers ------------------ //

  // -------------- Bulldozer Trailers --------------- //

  // Bulldozer trailer standard
       // Rough order of business here
       // Bulldozer trailers vary capacity depending on date vehicle is built
       // Can't get CB 36 to do that on build, only on refit (oh so close)
       // So instead define multiple vehicles using the same real sprites
       // Only difference is capacity
       // Lead vehicle chooses different trailers depending on date
       // This is inefficient on source code, also on ID use, but we have 255 IDs to play with so should be ok.
     // NOTE: Don't use IDs > 128 for trailers in articulated consists (lead vehicle ID can be > 128)
  287 * 67	 00 01 19 01 6E
      00 00 00  // intro date
      02 20     // reliability
      03 19     // vehicle life
      04 23     // class life
      06 00     // climate
      07 05     // load amount
      08 E0     // speed in mph * 3.2
      09 08     // running cost factor
      0A 48 4C 00 00 13 00 14 20    // running cost base
      0E FF     // sprite ID
      0F \b10     // capacity
      10 06     // cargo type
      11 00     // cost factor
      12 00     // sound effect
      15 38     // speed in mph * 0.8
      16 00 00 00 00    // Bit mask of cargo types available for refitting
      17 30     // Callback flags bit mask
      1A 00     // Refit cost, using 25% of the purchase price cost base
      1B 00     // Retire vehicle early, this many years before the end of phase 2
      1C 02     // Miscellaneous vehicle flags 
      1D FF 03      // Refittable cargo classes
      1E 01 00      // Non-refittable cargo classes
      1F 60 B3 0A 00    // Long format introduction date     
  288 * 67	 00 01 19 01 6F
      00 00 00  // intro date
      02 20     // reliability
      03 19     // vehicle life
      04 23     // class life
      06 00     // climate
      07 05     // load amount
      08 E0     // speed in mph * 3.2
      09 08     // running cost factor
      0A 48 4C 00 00 13 00 14 20    // running cost base
      0E FF     // sprite ID
      0F \b12     // capacity
      10 06     // cargo type
      11 00     // cost factor
      12 00     // sound effect
      15 38     // speed in mph * 0.8
      16 00 00 00 00    // Bit mask of cargo types available for refitting
      17 30     // Callback flags bit mask
      1A 00     // Refit cost, using 25% of the purchase price cost base
      1B 00     // Retire vehicle early, this many years before the end of phase 2
      1C 02     // Miscellaneous vehicle flags 
      1D FF 03      // Refittable cargo classes
      1E 01 00      // Non-refittable cargo classes
      1F 60 B3 0A 00    // Long format introduction date     
  289 * 67	 00 01 19 01 70
      00 00 00  // intro date
      02 20     // reliability
      03 19     // vehicle life
      04 23     // class life
      06 00     // climate
      07 05     // load amount
      08 E0     // speed in mph * 3.2
      09 08     // running cost factor
      0A 48 4C 00 00 13 00 14 20    // running cost base
      0E FF     // sprite ID
      0F \b14     // capacity
      10 06     // cargo type
      11 00     // cost factor
      12 00     // sound effect
      15 38     // speed in mph * 0.8
      16 00 00 00 00    // Bit mask of cargo types available for refitting
      17 30     // Callback flags bit mask
      1A 00     // Refit cost, using 25% of the purchase price cost base
      1B 00     // Retire vehicle early, this many years before the end of phase 2
      1C 02     // Miscellaneous vehicle flags 
      1D FF 03      // Refittable cargo classes
      1E 01 00      // Non-refittable cargo classes
      1F 60 B3 0A 00    // Long format introduction date     
  290 * 67	 00 01 19 01 71
      00 00 00  // intro date
      02 20     // reliability
      03 19     // vehicle life
      04 23     // class life
      06 00     // climate
      07 05     // load amount
      08 E0     // speed in mph * 3.2
      09 08     // running cost factor
      0A 48 4C 00 00 13 00 14 20    // running cost base
      0E FF     // sprite ID
      0F \b16     // capacity
      10 06     // cargo type
      11 00     // cost factor
      12 00     // sound effect
      15 38     // speed in mph * 0.8
      16 00 00 00 00    // Bit mask of cargo types available for refitting
      17 30     // Callback flags bit mask
      1A 00     // Refit cost, using 25% of the purchase price cost base
      1B 00     // Retire vehicle early, this many years before the end of phase 2
      1C 02     // Miscellaneous vehicle flags 
      1D FF 03      // Refittable cargo classes
      1E 01 00      // Non-refittable cargo classes
      1F 60 B3 0A 00    // Long format introduction date     
  291 * 67	 00 01 19 01 72
      00 00 00  // intro date
      02 20     // reliability
      03 19     // vehicle life
      04 23     // class life
      06 00     // climate
      07 05     // load amount
      08 E0     // speed in mph * 3.2
      09 08     // running cost factor
      0A 48 4C 00 00 13 00 14 20    // running cost base
      0E FF     // sprite ID
      0F \b19     // capacity
      10 06     // cargo type
      11 00     // cost factor
      12 00     // sound effect
      15 38     // speed in mph * 0.8
      16 00 00 00 00    // Bit mask of cargo types available for refitting
      17 30     // Callback flags bit mask
      1A 00     // Refit cost, using 25% of the purchase price cost base
      1B 00     // Retire vehicle early, this many years before the end of phase 2
      1C 02     // Miscellaneous vehicle flags 
      1D FF 03      // Refittable cargo classes
      1E 01 00      // Non-refittable cargo classes
      1F 60 B3 0A 00    // Long format introduction date     
  292 * 67	 00 01 19 01 73
      00 00 00  // intro date
      02 20     // reliability
      03 19     // vehicle life
      04 23     // class life
      06 00     // climate
      07 05     // load amount
      08 E0     // speed in mph * 3.2
      09 08     // running cost factor
      0A 48 4C 00 00 13 00 14 20    // running cost base
      0E FF     // sprite ID
      0F \b22     // capacity
      10 06     // cargo type
      11 00     // cost factor
      12 00     // sound effect
      15 38     // speed in mph * 0.8
      16 00 00 00 00    // Bit mask of cargo types available for refitting
      17 30     // Callback flags bit mask
      1A 00     // Refit cost, using 25% of the purchase price cost base
      1B 00     // Retire vehicle early, this many years before the end of phase 2
      1C 02     // Miscellaneous vehicle flags 
      1D FF 03      // Refittable cargo classes
      1E 01 00      // Non-refittable cargo classes
      1F 60 B3 0A 00    // Long format introduction date     
  293 * 42	 04 01 7F 01 70 "[Generic Standard bulldozer Trailer]" 00
  // define additional text suffixes
  294 * 33	 04 00 81 02 00 D0
            		" (Wheeled Trailer)" 00	// D000 = "1st class"
               	" (Sled)" 00	// D001 = "2nd class"
  // Action 2 ID schema: 0 / 1 = wheeled trailer, 2 / 3 = sled
   // Standard bulldozer Goods Trailer
  295 * 4	 01 01 01 08
  296 Y:\Documents\OTTD graphics\HEQS_build\Full HEQS\sprites\standard_trailers/medium_trailer_4_wheel.pcx 34 570 01 24 12 -3 -10
  297 Y:\Documents\OTTD graphics\HEQS_build\Full HEQS\sprites\standard_trailers/medium_trailer_4_wheel.pcx 66 570 01 20 26 -11 -9
  298 Y:\Documents\OTTD graphics\HEQS_build\Full HEQS\sprites\standard_trailers/medium_trailer_4_wheel.pcx 98 570 01 16 36 -14 -6
  299 Y:\Documents\OTTD graphics\HEQS_build\Full HEQS\sprites\standard_trailers/medium_trailer_4_wheel.pcx 146 570 01 20 26 -9 -7
  300 Y:\Documents\OTTD graphics\HEQS_build\Full HEQS\sprites\standard_trailers/medium_trailer_4_wheel.pcx 178 570 01 24 12 -9 -16
  301 Y:\Documents\OTTD graphics\HEQS_build\Full HEQS\sprites\standard_trailers/medium_trailer_4_wheel.pcx 210 570 01 20 26 -17 -7
  302 Y:\Documents\OTTD graphics\HEQS_build\Full HEQS\sprites\standard_trailers/medium_trailer_4_wheel.pcx 242 570 01 16 36 -30 -8
  303 Y:\Documents\OTTD graphics\HEQS_build\Full HEQS\sprites\standard_trailers/medium_trailer_4_wheel.pcx 290 570 01 20 26 -13 -10
  304 * 9	 02 01 05   01 01   00 00    00 00
   // Standard bulldozer Goods Sled
  305 * 4	 01 01 01 08
  306 Y:\Documents\OTTD graphics\HEQS_build\Full HEQS\sprites\standard_trailers/medium_sled.pcx 34 570 01 24 12 -3 -10
  307 Y:\Documents\OTTD graphics\HEQS_build\Full HEQS\sprites\standard_trailers/medium_sled.pcx 66 570 01 20 26 -11 -9
  308 Y:\Documents\OTTD graphics\HEQS_build\Full HEQS\sprites\standard_trailers/medium_sled.pcx 98 570 01 16 36 -14 -6
  309 Y:\Documents\OTTD graphics\HEQS_build\Full HEQS\sprites\standard_trailers/medium_sled.pcx 146 570 01 20 26 -9 -7
  310 Y:\Documents\OTTD graphics\HEQS_build\Full HEQS\sprites\standard_trailers/medium_sled.pcx 178 570 01 24 12 -9 -16
  311 Y:\Documents\OTTD graphics\HEQS_build\Full HEQS\sprites\standard_trailers/medium_sled.pcx 210 570 01 20 26 -17 -7
  312 Y:\Documents\OTTD graphics\HEQS_build\Full HEQS\sprites\standard_trailers/medium_sled.pcx 242 570 01 16 36 -30 -8
  313 Y:\Documents\OTTD graphics\HEQS_build\Full HEQS\sprites\standard_trailers/medium_sled.pcx 290 570 01 20 26 -13 -10
  314 * 9	 02 01 25   01 01   00 00    00 00
   // Standard bulldozer end dump trailer - empty
  315 * 4	 01 01 0D 08
  316 Y:\Documents\OTTD graphics\HEQS_build\Full HEQS\sprites\standard_trailers/medium_trailer_4_wheel.pcx 34 50 01 24 12 -3 -10
  317 Y:\Documents\OTTD graphics\HEQS_build\Full HEQS\sprites\standard_trailers/medium_trailer_4_wheel.pcx 66 50 09 20 26 -11 -9
  318 Y:\Documents\OTTD graphics\HEQS_build\Full HEQS\sprites\standard_trailers/medium_trailer_4_wheel.pcx 98 50 01 16 36 -14 -6
  319 Y:\Documents\OTTD graphics\HEQS_build\Full HEQS\sprites\standard_trailers/medium_trailer_4_wheel.pcx 146 50 09 20 26 -9 -7
  320 Y:\Documents\OTTD graphics\HEQS_build\Full HEQS\sprites\standard_trailers/medium_trailer_4_wheel.pcx 178 50 01 24 12 -9 -16
  321 Y:\Documents\OTTD graphics\HEQS_build\Full HEQS\sprites\standard_trailers/medium_trailer_4_wheel.pcx 210 50 09 20 26 -17 -7
  322 Y:\Documents\OTTD graphics\HEQS_build\Full HEQS\sprites\standard_trailers/medium_trailer_4_wheel.pcx 242 50 01 16 36 -30 -8
  323 Y:\Documents\OTTD graphics\HEQS_build\Full HEQS\sprites\standard_trailers/medium_trailer_4_wheel.pcx 290 50 09 20 26 -13 -10
   // Standard bulldozer end dump - iron ore, loading
  324 Y:\Documents\OTTD graphics\HEQS_build\Full HEQS\sprites\standard_trailers/medium_trailer_4_wheel.pcx 34 490 01 24 12 -3 -10
  325 Y:\Documents\OTTD graphics\HEQS_build\Full HEQS\sprites\standard_trailers/medium_trailer_4_wheel.pcx 66 490 09 20 20 -11 -9
  326 Y:\Documents\OTTD graphics\HEQS_build\Full HEQS\sprites\standard_trailers/medium_trailer_4_wheel.pcx 98 490 01 16 36 -14 -6
  327 Y:\Documents\OTTD graphics\HEQS_build\Full HEQS\sprites\standard_trailers/medium_trailer_4_wheel.pcx 146 490 09 20 26 -9 -7
  328 Y:\Documents\OTTD graphics\HEQS_build\Full HEQS\sprites\standard_trailers/medium_trailer_4_wheel.pcx 178 490 01 24 12 -9 -16
  329 Y:\Documents\OTTD graphics\HEQS_build\Full HEQS\sprites\standard_trailers/medium_trailer_4_wheel.pcx 210 490 09 20 26 -17 -7
  330 Y:\Documents\OTTD graphics\HEQS_build\Full HEQS\sprites\standard_trailers/medium_trailer_4_wheel.pcx 242 490 01 16 36 -30 -8
  331 Y:\Documents\OTTD graphics\HEQS_build\Full HEQS\sprites\standard_trailers/medium_trailer_4_wheel.pcx 290 490 09 20 26 -13 -10
   // Standard bulldozer end dump - iron ore, loaded
  332 Y:\Documents\OTTD graphics\HEQS_build\Full HEQS\sprites\standard_trailers/medium_trailer_4_wheel.pcx 34 530 01 24 12 -3 -10
  333 Y:\Documents\OTTD graphics\HEQS_build\Full HEQS\sprites\standard_trailers/medium_trailer_4_wheel.pcx 66 530 09 20 20 -11 -9
  334 Y:\Documents\OTTD graphics\HEQS_build\Full HEQS\sprites\standard_trailers/medium_trailer_4_wheel.pcx 98 530 01 16 36 -14 -6
  335 Y:\Documents\OTTD graphics\HEQS_build\Full HEQS\sprites\standard_trailers/medium_trailer_4_wheel.pcx 146 530 09 20 26 -9 -7
  336 Y:\Documents\OTTD graphics\HEQS_build\Full HEQS\sprites\standard_trailers/medium_trailer_4_wheel.pcx 178 530 01 24 12 -9 -16
  337 Y:\Documents\OTTD graphics\HEQS_build\Full HEQS\sprites\standard_trailers/medium_trailer_4_wheel.pcx 210 530 09 20 26 -17 -7
  338 Y:\Documents\OTTD graphics\HEQS_build\Full HEQS\sprites\standard_trailers/medium_trailer_4_wheel.pcx 242 530 01 16 36 -30 -8
  339 Y:\Documents\OTTD graphics\HEQS_build\Full HEQS\sprites\standard_trailers/medium_trailer_4_wheel.pcx 290 530 09 20 26 -13 -10
   // Standard bulldozer end dump - coal, loading
  340 Y:\Documents\OTTD graphics\HEQS_build\Full HEQS\sprites\standard_trailers/medium_trailer_4_wheel.pcx 34 170 01 24 12 -3 -10
  341 Y:\Documents\OTTD graphics\HEQS_build\Full HEQS\sprites\standard_trailers/medium_trailer_4_wheel.pcx 66 170 09 20 26 -11 -9
  342 Y:\Documents\OTTD graphics\HEQS_build\Full HEQS\sprites\standard_trailers/medium_trailer_4_wheel.pcx 98 170 01 16 36 -14 -6
  343 Y:\Documents\OTTD graphics\HEQS_build\Full HEQS\sprites\standard_trailers/medium_trailer_4_wheel.pcx 146 170 09 20 26 -9 -7
  344 Y:\Documents\OTTD graphics\HEQS_build\Full HEQS\sprites\standard_trailers/medium_trailer_4_wheel.pcx 178 170 01 24 12 -9 -16
  345 Y:\Documents\OTTD graphics\HEQS_build\Full HEQS\sprites\standard_trailers/medium_trailer_4_wheel.pcx 210 170 09 20 26 -17 -7
  346 Y:\Documents\OTTD graphics\HEQS_build\Full HEQS\sprites\standard_trailers/medium_trailer_4_wheel.pcx 242 170 01 16 36 -30 -8
  347 Y:\Documents\OTTD graphics\HEQS_build\Full HEQS\sprites\standard_trailers/medium_trailer_4_wheel.pcx 290 170 09 20 26 -13 -10
   // Standard bulldozer end dump - coal, loaded
  348 Y:\Documents\OTTD graphics\HEQS_build\Full HEQS\sprites\standard_trailers/medium_trailer_4_wheel.pcx 34 210 01 24 12 -3 -10
  349 Y:\Documents\OTTD graphics\HEQS_build\Full HEQS\sprites\standard_trailers/medium_trailer_4_wheel.pcx 66 210 09 20 26 -11 -9
  350 Y:\Documents\OTTD graphics\HEQS_build\Full HEQS\sprites\standard_trailers/medium_trailer_4_wheel.pcx 98 210 01 16 36 -14 -6
  351 Y:\Documents\OTTD graphics\HEQS_build\Full HEQS\sprites\standard_trailers/medium_trailer_4_wheel.pcx 146 210 09 20 26 -9 -7
  352 Y:\Documents\OTTD graphics\HEQS_build\Full HEQS\sprites\standard_trailers/medium_trailer_4_wheel.pcx 178 210 01 24 12 -9 -16
  353 Y:\Documents\OTTD graphics\HEQS_build\Full HEQS\sprites\standard_trailers/medium_trailer_4_wheel.pcx 210 210 09 20 26 -17 -7
  354 Y:\Documents\OTTD graphics\HEQS_build\Full HEQS\sprites\standard_trailers/medium_trailer_4_wheel.pcx 242 210 01 16 36 -30 -8
  355 Y:\Documents\OTTD graphics\HEQS_build\Full HEQS\sprites\standard_trailers/medium_trailer_4_wheel.pcx 290 210 09 20 26 -13 -10
   // Standard bulldozer end dump - grain, loading
  356 Y:\Documents\OTTD graphics\HEQS_build\Full HEQS\sprites\standard_trailers/medium_trailer_4_wheel.pcx 34 250 01 24 12 -3 -10
  357 Y:\Documents\OTTD graphics\HEQS_build\Full HEQS\sprites\standard_trailers/medium_trailer_4_wheel.pcx 66 250 09 20 26 -11 -9
  358 Y:\Documents\OTTD graphics\HEQS_build\Full HEQS\sprites\standard_trailers/medium_trailer_4_wheel.pcx 98 250 01 16 36 -14 -6
  359 Y:\Documents\OTTD graphics\HEQS_build\Full HEQS\sprites\standard_trailers/medium_trailer_4_wheel.pcx 146 250 09 20 26 -9 -7
  360 Y:\Documents\OTTD graphics\HEQS_build\Full HEQS\sprites\standard_trailers/medium_trailer_4_wheel.pcx 178 250 01 24 12 -9 -16
  361 Y:\Documents\OTTD graphics\HEQS_build\Full HEQS\sprites\standard_trailers/medium_trailer_4_wheel.pcx 210 250 09 20 26 -17 -7
  362 Y:\Documents\OTTD graphics\HEQS_build\Full HEQS\sprites\standard_trailers/medium_trailer_4_wheel.pcx 242 250 01 16 36 -30 -8
  363 Y:\Documents\OTTD graphics\HEQS_build\Full HEQS\sprites\standard_trailers/medium_trailer_4_wheel.pcx 290 250 09 20 26 -13 -10
  // Standard bulldozer end dump - grain, loaded
  364 Y:\Documents\OTTD graphics\HEQS_build\Full HEQS\sprites\standard_trailers/medium_trailer_4_wheel.pcx 34 290 01 24 12 -3 -10
  365 Y:\Documents\OTTD graphics\HEQS_build\Full HEQS\sprites\standard_trailers/medium_trailer_4_wheel.pcx 66 290 09 20 26 -11 -9
  366 Y:\Documents\OTTD graphics\HEQS_build\Full HEQS\sprites\standard_trailers/medium_trailer_4_wheel.pcx 98 290 01 16 36 -14 -6
  367 Y:\Documents\OTTD graphics\HEQS_build\Full HEQS\sprites\standard_trailers/medium_trailer_4_wheel.pcx 146 290 09 20 26 -9 -7
  368 Y:\Documents\OTTD graphics\HEQS_build\Full HEQS\sprites\standard_trailers/medium_trailer_4_wheel.pcx 178 290 01 24 12 -9 -16
  369 Y:\Documents\OTTD graphics\HEQS_build\Full HEQS\sprites\standard_trailers/medium_trailer_4_wheel.pcx 210 290 09 20 26 -17 -7
  370 Y:\Documents\OTTD graphics\HEQS_build\Full HEQS\sprites\standard_trailers/medium_trailer_4_wheel.pcx 242 290 01 16 36 -30 -8
  371 Y:\Documents\OTTD graphics\HEQS_build\Full HEQS\sprites\standard_trailers/medium_trailer_4_wheel.pcx 290 290 09 20 26 -13 -10
  // Standard bulldozer end dump - brown, loading
  372 Y:\Documents\OTTD graphics\HEQS_build\Full HEQS\sprites\standard_trailers/medium_trailer_4_wheel.pcx 34 410 01 24 12 -3 -10
  373 Y:\Documents\OTTD graphics\HEQS_build\Full HEQS\sprites\standard_trailers/medium_trailer_4_wheel.pcx 66 410 09 20 26 -11 -9
  374 Y:\Documents\OTTD graphics\HEQS_build\Full HEQS\sprites\standard_trailers/medium_trailer_4_wheel.pcx 98 410 01 16 36 -14 -6
  375 Y:\Documents\OTTD graphics\HEQS_build\Full HEQS\sprites\standard_trailers/medium_trailer_4_wheel.pcx 146 410 09 20 26 -9 -7
  376 Y:\Documents\OTTD graphics\HEQS_build\Full HEQS\sprites\standard_trailers/medium_trailer_4_wheel.pcx 178 410 01 24 12 -9 -16
  377 Y:\Documents\OTTD graphics\HEQS_build\Full HEQS\sprites\standard_trailers/medium_trailer_4_wheel.pcx 210 410 09 20 26 -17 -7
  378 Y:\Documents\OTTD graphics\HEQS_build\Full HEQS\sprites\standard_trailers/medium_trailer_4_wheel.pcx 242 410 01 16 36 -30 -8
  379 Y:\Documents\OTTD graphics\HEQS_build\Full HEQS\sprites\standard_trailers/medium_trailer_4_wheel.pcx 290 410 09 20 26 -13 -10
  // Standard bulldozer end dump - brown, loaded
  380 Y:\Documents\OTTD graphics\HEQS_build\Full HEQS\sprites\standard_trailers/medium_trailer_4_wheel.pcx 34 450 01 24 12 -3 -10
  381 Y:\Documents\OTTD graphics\HEQS_build\Full HEQS\sprites\standard_trailers/medium_trailer_4_wheel.pcx 66 450 09 20 26 -11 -9
  382 Y:\Documents\OTTD graphics\HEQS_build\Full HEQS\sprites\standard_trailers/medium_trailer_4_wheel.pcx 98 450 01 16 36 -14 -6
  383 Y:\Documents\OTTD graphics\HEQS_build\Full HEQS\sprites\standard_trailers/medium_trailer_4_wheel.pcx 146 450 09 20 26 -9 -7
  384 Y:\Documents\OTTD graphics\HEQS_build\Full HEQS\sprites\standard_trailers/medium_trailer_4_wheel.pcx 178 450 01 24 12 -9 -16
  385 Y:\Documents\OTTD graphics\HEQS_build\Full HEQS\sprites\standard_trailers/medium_trailer_4_wheel.pcx 210 450 09 20 26 -17 -7
  386 Y:\Documents\OTTD graphics\HEQS_build\Full HEQS\sprites\standard_trailers/medium_trailer_4_wheel.pcx 242 450 01 16 36 -30 -8
  387 Y:\Documents\OTTD graphics\HEQS_build\Full HEQS\sprites\standard_trailers/medium_trailer_4_wheel.pcx 290 450 09 20 26 -13 -10
  // Standard bulldozer end dump - red, loading
  388 Y:\Documents\OTTD graphics\HEQS_build\Full HEQS\sprites\standard_trailers/medium_trailer_4_wheel.pcx 34 370 01 24 12 -3 -10
  389 Y:\Documents\OTTD graphics\HEQS_build\Full HEQS\sprites\standard_trailers/medium_trailer_4_wheel.pcx 66 370 09 20 26 -11 -9
  390 Y:\Documents\OTTD graphics\HEQS_build\Full HEQS\sprites\standard_trailers/medium_trailer_4_wheel.pcx 98 370 01 16 36 -14 -6
  391 Y:\Documents\OTTD graphics\HEQS_build\Full HEQS\sprites\standard_trailers/medium_trailer_4_wheel.pcx 146 370 09 20 26 -9 -7
  392 Y:\Documents\OTTD graphics\HEQS_build\Full HEQS\sprites\standard_trailers/medium_trailer_4_wheel.pcx 178 370 01 24 12 -9 -16
  393 Y:\Documents\OTTD graphics\HEQS_build\Full HEQS\sprites\standard_trailers/medium_trailer_4_wheel.pcx 210 370 09 20 26 -17 -7
  394 Y:\Documents\OTTD graphics\HEQS_build\Full HEQS\sprites\standard_trailers/medium_trailer_4_wheel.pcx 242 370 01 16 36 -30 -8
  395 Y:\Documents\OTTD graphics\HEQS_build\Full HEQS\sprites\standard_trailers/medium_trailer_4_wheel.pcx 290 370 09 20 26 -13 -10
  // Standard bulldozer end dump - red, loaded
  396 Y:\Documents\OTTD graphics\HEQS_build\Full HEQS\sprites\standard_trailers/medium_trailer_4_wheel.pcx 34 370 01 24 12 -3 -10
  397 Y:\Documents\OTTD graphics\HEQS_build\Full HEQS\sprites\standard_trailers/medium_trailer_4_wheel.pcx 66 370 09 20 26 -11 -9
  398 Y:\Documents\OTTD graphics\HEQS_build\Full HEQS\sprites\standard_trailers/medium_trailer_4_wheel.pcx 98 370 01 16 36 -14 -6
  399 Y:\Documents\OTTD graphics\HEQS_build\Full HEQS\sprites\standard_trailers/medium_trailer_4_wheel.pcx 146 370 09 20 26 -9 -7
  400 Y:\Documents\OTTD graphics\HEQS_build\Full HEQS\sprites\standard_trailers/medium_trailer_4_wheel.pcx 178 370 01 24 12 -9 -16
  401 Y:\Documents\OTTD graphics\HEQS_build\Full HEQS\sprites\standard_trailers/medium_trailer_4_wheel.pcx 210 370 09 20 26 -17 -7
  402 Y:\Documents\OTTD graphics\HEQS_build\Full HEQS\sprites\standard_trailers/medium_trailer_4_wheel.pcx 242 370 01 16 36 -30 -8
  403 Y:\Documents\OTTD graphics\HEQS_build\Full HEQS\sprites\standard_trailers/medium_trailer_4_wheel.pcx 290 370 09 20 26 -13 -10
  // Standard bulldozer end dump - grey, loading
  404 Y:\Documents\OTTD graphics\HEQS_build\Full HEQS\sprites\standard_trailers/medium_trailer_4_wheel.pcx 34 90 01 24 12 -3 -10
  405 Y:\Documents\OTTD graphics\HEQS_build\Full HEQS\sprites\standard_trailers/medium_trailer_4_wheel.pcx 66 90 09 20 26 -11 -9
  406 Y:\Documents\OTTD graphics\HEQS_build\Full HEQS\sprites\standard_trailers/medium_trailer_4_wheel.pcx 98 90 01 16 36 -14 -6
  407 Y:\Documents\OTTD graphics\HEQS_build\Full HEQS\sprites\standard_trailers/medium_trailer_4_wheel.pcx 146 90 09 20 26 -9 -7
  408 Y:\Documents\OTTD graphics\HEQS_build\Full HEQS\sprites\standard_trailers/medium_trailer_4_wheel.pcx 178 90 01 24 12 -9 -16
  409 Y:\Documents\OTTD graphics\HEQS_build\Full HEQS\sprites\standard_trailers/medium_trailer_4_wheel.pcx 210 90 09 20 26 -17 -7
  410 Y:\Documents\OTTD graphics\HEQS_build\Full HEQS\sprites\standard_trailers/medium_trailer_4_wheel.pcx 242 90 01 16 36 -30 -8
  411 Y:\Documents\OTTD graphics\HEQS_build\Full HEQS\sprites\standard_trailers/medium_trailer_4_wheel.pcx 290 90 09 20 26 -13 -10
  // Standard bulldozer end dump - grey, loaded
  412 Y:\Documents\OTTD graphics\HEQS_build\Full HEQS\sprites\standard_trailers/medium_trailer_4_wheel.pcx 34 130 01 24 12 -3 -10
  413 Y:\Documents\OTTD graphics\HEQS_build\Full HEQS\sprites\standard_trailers/medium_trailer_4_wheel.pcx 66 130 09 20 26 -11 -9
  414 Y:\Documents\OTTD graphics\HEQS_build\Full HEQS\sprites\standard_trailers/medium_trailer_4_wheel.pcx 98 130 01 16 36 -14 -6
  415 Y:\Documents\OTTD graphics\HEQS_build\Full HEQS\sprites\standard_trailers/medium_trailer_4_wheel.pcx 146 130 09 20 26 -9 -7
  416 Y:\Documents\OTTD graphics\HEQS_build\Full HEQS\sprites\standard_trailers/medium_trailer_4_wheel.pcx 178 130 01 24 12 -9 -16
  417 Y:\Documents\OTTD graphics\HEQS_build\Full HEQS\sprites\standard_trailers/medium_trailer_4_wheel.pcx 210 130 09 20 26 -17 -7
  418 Y:\Documents\OTTD graphics\HEQS_build\Full HEQS\sprites\standard_trailers/medium_trailer_4_wheel.pcx 242 130 01 16 36 -30 -8
  419 Y:\Documents\OTTD graphics\HEQS_build\Full HEQS\sprites\standard_trailers/medium_trailer_4_wheel.pcx 290 130 09 20 26 -13 -10
  420 * 17	 02 01 08  03 03    00 00  01 00  02 00    00 00  01 00  02 00 // iron ore ?
  421 * 17	 02 01 01  03 03    00 00  03 00  04 00    00 00  03 00  04 00 // coal ?
  422 * 17	 02 01 06  03 03    00 00  05 00  06 00    00 00  05 00  06 00 // grain ?
  423 * 17	 02 01 0E  03 03    00 00  07 00  08 00    00 00  07 00  08 00 // brown ?
//!!Warning (94): Redefining ID 0C not used since previous definition at sprite 282.
  424 * 17	 02 01 0C  03 03    00 00  09 00  0A 00    00 00  09 00  0A 00 // red ?
  425 * 17	 02 01 0D  03 03    00 00  0B 00  0C 00    00 00  0B 00  0C 00 // grey ?
  // Standard bulldozer side dump sled - empty
  426 * 4	 01 01 0D 08
  427 Y:\Documents\OTTD graphics\HEQS_build\Full HEQS\sprites\standard_trailers/medium_sled.pcx 34 50 01 24 12 -3 -10
  428 Y:\Documents\OTTD graphics\HEQS_build\Full HEQS\sprites\standard_trailers/medium_sled.pcx 66 50 09 20 26 -11 -9
  429 Y:\Documents\OTTD graphics\HEQS_build\Full HEQS\sprites\standard_trailers/medium_sled.pcx 98 50 01 16 36 -14 -6
  430 Y:\Documents\OTTD graphics\HEQS_build\Full HEQS\sprites\standard_trailers/medium_sled.pcx 146 50 09 20 26 -9 -7
  431 Y:\Documents\OTTD graphics\HEQS_build\Full HEQS\sprites\standard_trailers/medium_sled.pcx 178 50 01 24 12 -9 -16
  432 Y:\Documents\OTTD graphics\HEQS_build\Full HEQS\sprites\standard_trailers/medium_sled.pcx 210 50 09 20 26 -17 -7
  433 Y:\Documents\OTTD graphics\HEQS_build\Full HEQS\sprites\standard_trailers/medium_sled.pcx 242 50 01 16 36 -30 -8
  434 Y:\Documents\OTTD graphics\HEQS_build\Full HEQS\sprites\standard_trailers/medium_sled.pcx 290 50 09 20 26 -13 -10
   // Standard bulldozer side dump sled - iron ore, loading  !! this isn't iron ore??
  435 Y:\Documents\OTTD graphics\HEQS_build\Full HEQS\sprites\standard_trailers/medium_sled.pcx 34 490 01 24 12 -3 -10
  436 Y:\Documents\OTTD graphics\HEQS_build\Full HEQS\sprites\standard_trailers/medium_sled.pcx 66 490 09 20 20 -11 -9
  437 Y:\Documents\OTTD graphics\HEQS_build\Full HEQS\sprites\standard_trailers/medium_sled.pcx 98 490 01 16 36 -14 -6
  438 Y:\Documents\OTTD graphics\HEQS_build\Full HEQS\sprites\standard_trailers/medium_sled.pcx 146 490 09 20 26 -9 -7
  439 Y:\Documents\OTTD graphics\HEQS_build\Full HEQS\sprites\standard_trailers/medium_sled.pcx 178 490 01 24 12 -9 -16
  440 Y:\Documents\OTTD graphics\HEQS_build\Full HEQS\sprites\standard_trailers/medium_sled.pcx 210 490 09 20 26 -17 -7
  441 Y:\Documents\OTTD graphics\HEQS_build\Full HEQS\sprites\standard_trailers/medium_sled.pcx 242 490 01 16 36 -30 -8
  442 Y:\Documents\OTTD graphics\HEQS_build\Full HEQS\sprites\standard_trailers/medium_sled.pcx 290 490 09 20 26 -13 -10
   // Standard bulldozer side dump sled - iron ore, loaded  !! this isn't iron ore??
  443 Y:\Documents\OTTD graphics\HEQS_build\Full HEQS\sprites\standard_trailers/medium_sled.pcx 34 530 01 24 12 -3 -10
  444 Y:\Documents\OTTD graphics\HEQS_build\Full HEQS\sprites\standard_trailers/medium_sled.pcx 66 530 09 20 20 -11 -9
  445 Y:\Documents\OTTD graphics\HEQS_build\Full HEQS\sprites\standard_trailers/medium_sled.pcx 98 530 01 16 36 -14 -6
  446 Y:\Documents\OTTD graphics\HEQS_build\Full HEQS\sprites\standard_trailers/medium_sled.pcx 146 530 09 20 26 -9 -7
  447 Y:\Documents\OTTD graphics\HEQS_build\Full HEQS\sprites\standard_trailers/medium_sled.pcx 178 530 01 24 12 -9 -16
  448 Y:\Documents\OTTD graphics\HEQS_build\Full HEQS\sprites\standard_trailers/medium_sled.pcx 210 530 09 20 26 -17 -7
  449 Y:\Documents\OTTD graphics\HEQS_build\Full HEQS\sprites\standard_trailers/medium_sled.pcx 242 530 01 16 36 -30 -8
  450 Y:\Documents\OTTD graphics\HEQS_build\Full HEQS\sprites\standard_trailers/medium_sled.pcx 290 530 09 20 26 -13 -10
   // Standard bulldozer side dump sled - coal, loading
  451 Y:\Documents\OTTD graphics\HEQS_build\Full HEQS\sprites\standard_trailers/medium_sled.pcx 34 170 01 24 12 -3 -10
  452 Y:\Documents\OTTD graphics\HEQS_build\Full HEQS\sprites\standard_trailers/medium_sled.pcx 66 170 09 20 26 -11 -9
  453 Y:\Documents\OTTD graphics\HEQS_build\Full HEQS\sprites\standard_trailers/medium_sled.pcx 98 170 01 16 36 -14 -6
  454 Y:\Documents\OTTD graphics\HEQS_build\Full HEQS\sprites\standard_trailers/medium_sled.pcx 146 170 09 20 26 -9 -7
  455 Y:\Documents\OTTD graphics\HEQS_build\Full HEQS\sprites\standard_trailers/medium_sled.pcx 178 170 01 24 12 -9 -16
  456 Y:\Documents\OTTD graphics\HEQS_build\Full HEQS\sprites\standard_trailers/medium_sled.pcx 210 170 09 20 26 -17 -7
  457 Y:\Documents\OTTD graphics\HEQS_build\Full HEQS\sprites\standard_trailers/medium_sled.pcx 242 170 01 16 36 -30 -8
  458 Y:\Documents\OTTD graphics\HEQS_build\Full HEQS\sprites\standard_trailers/medium_sled.pcx 290 170 09 20 26 -13 -10
   // Standard bulldozer side dump sled - coal, loaded
  459 Y:\Documents\OTTD graphics\HEQS_build\Full HEQS\sprites\standard_trailers/medium_sled.pcx 34 210 01 24 12 -3 -10
  460 Y:\Documents\OTTD graphics\HEQS_build\Full HEQS\sprites\standard_trailers/medium_sled.pcx 66 210 09 20 26 -11 -9
  461 Y:\Documents\OTTD graphics\HEQS_build\Full HEQS\sprites\standard_trailers/medium_sled.pcx 98 210 01 16 36 -14 -6
  462 Y:\Documents\OTTD graphics\HEQS_build\Full HEQS\sprites\standard_trailers/medium_sled.pcx 146 210 09 20 26 -9 -7
  463 Y:\Documents\OTTD graphics\HEQS_build\Full HEQS\sprites\standard_trailers/medium_sled.pcx 178 210 01 24 12 -9 -16
  464 Y:\Documents\OTTD graphics\HEQS_build\Full HEQS\sprites\standard_trailers/medium_sled.pcx 210 210 09 20 26 -17 -7
  465 Y:\Documents\OTTD graphics\HEQS_build\Full HEQS\sprites\standard_trailers/medium_sled.pcx 242 210 01 16 36 -30 -8
  466 Y:\Documents\OTTD graphics\HEQS_build\Full HEQS\sprites\standard_trailers/medium_sled.pcx 290 210 09 20 26 -13 -10
   // Standard bulldozer side dump sled - grain, loading
  467 Y:\Documents\OTTD graphics\HEQS_build\Full HEQS\sprites\standard_trailers/medium_sled.pcx 34 250 01 24 12 -3 -10
  468 Y:\Documents\OTTD graphics\HEQS_build\Full HEQS\sprites\standard_trailers/medium_sled.pcx 66 250 09 20 26 -11 -9
  469 Y:\Documents\OTTD graphics\HEQS_build\Full HEQS\sprites\standard_trailers/medium_sled.pcx 98 250 01 16 36 -14 -6
  470 Y:\Documents\OTTD graphics\HEQS_build\Full HEQS\sprites\standard_trailers/medium_sled.pcx 146 250 09 20 26 -9 -7
  471 Y:\Documents\OTTD graphics\HEQS_build\Full HEQS\sprites\standard_trailers/medium_sled.pcx 178 250 01 24 12 -9 -16
  472 Y:\Documents\OTTD graphics\HEQS_build\Full HEQS\sprites\standard_trailers/medium_sled.pcx 210 250 09 20 26 -17 -7
  473 Y:\Documents\OTTD graphics\HEQS_build\Full HEQS\sprites\standard_trailers/medium_sled.pcx 242 250 01 16 36 -30 -8
  474 Y:\Documents\OTTD graphics\HEQS_build\Full HEQS\sprites\standard_trailers/medium_sled.pcx 290 250 09 20 26 -13 -10
  // Standard bulldozer side dump sled - grain, loaded
  475 Y:\Documents\OTTD graphics\HEQS_build\Full HEQS\sprites\standard_trailers/medium_sled.pcx 34 290 01 24 12 -3 -10
  476 Y:\Documents\OTTD graphics\HEQS_build\Full HEQS\sprites\standard_trailers/medium_sled.pcx 66 290 09 20 26 -11 -9
  477 Y:\Documents\OTTD graphics\HEQS_build\Full HEQS\sprites\standard_trailers/medium_sled.pcx 98 290 01 16 36 -14 -6
  478 Y:\Documents\OTTD graphics\HEQS_build\Full HEQS\sprites\standard_trailers/medium_sled.pcx 146 290 09 20 26 -9 -7
  479 Y:\Documents\OTTD graphics\HEQS_build\Full HEQS\sprites\standard_trailers/medium_sled.pcx 178 290 01 24 12 -9 -16
  480 Y:\Documents\OTTD graphics\HEQS_build\Full HEQS\sprites\standard_trailers/medium_sled.pcx 210 290 09 20 26 -17 -7
  481 Y:\Documents\OTTD graphics\HEQS_build\Full HEQS\sprites\standard_trailers/medium_sled.pcx 242 290 01 16 36 -30 -8
  482 Y:\Documents\OTTD graphics\HEQS_build\Full HEQS\sprites\standard_trailers/medium_sled.pcx 290 290 09 20 26 -13 -10
  // Standard bulldozer side dump sled - brown, loading
  483 Y:\Documents\OTTD graphics\HEQS_build\Full HEQS\sprites\standard_trailers/medium_sled.pcx 34 410 01 24 12 -3 -10
  484 Y:\Documents\OTTD graphics\HEQS_build\Full HEQS\sprites\standard_trailers/medium_sled.pcx 66 410 09 20 26 -11 -9
  485 Y:\Documents\OTTD graphics\HEQS_build\Full HEQS\sprites\standard_trailers/medium_sled.pcx 98 410 01 16 36 -14 -6
  486 Y:\Documents\OTTD graphics\HEQS_build\Full HEQS\sprites\standard_trailers/medium_sled.pcx 146 410 09 20 26 -9 -7
  487 Y:\Documents\OTTD graphics\HEQS_build\Full HEQS\sprites\standard_trailers/medium_sled.pcx 178 410 01 24 12 -9 -16
  488 Y:\Documents\OTTD graphics\HEQS_build\Full HEQS\sprites\standard_trailers/medium_sled.pcx 210 410 09 20 26 -17 -7
  489 Y:\Documents\OTTD graphics\HEQS_build\Full HEQS\sprites\standard_trailers/medium_sled.pcx 242 410 01 16 36 -30 -8
  490 Y:\Documents\OTTD graphics\HEQS_build\Full HEQS\sprites\standard_trailers/medium_sled.pcx 290 410 09 20 26 -13 -10
  // Standard bulldozer side dump sled - brown, loaded
  491 Y:\Documents\OTTD graphics\HEQS_build\Full HEQS\sprites\standard_trailers/medium_sled.pcx 34 450 01 24 12 -3 -10
  492 Y:\Documents\OTTD graphics\HEQS_build\Full HEQS\sprites\standard_trailers/medium_sled.pcx 66 450 09 20 26 -11 -9
  493 Y:\Documents\OTTD graphics\HEQS_build\Full HEQS\sprites\standard_trailers/medium_sled.pcx 98 450 01 16 36 -14 -6
  494 Y:\Documents\OTTD graphics\HEQS_build\Full HEQS\sprites\standard_trailers/medium_sled.pcx 146 450 09 20 26 -9 -7
  495 Y:\Documents\OTTD graphics\HEQS_build\Full HEQS\sprites\standard_trailers/medium_sled.pcx 178 450 01 24 12 -9 -16
  496 Y:\Documents\OTTD graphics\HEQS_build\Full HEQS\sprites\standard_trailers/medium_sled.pcx 210 450 09 20 26 -17 -7
  497 Y:\Documents\OTTD graphics\HEQS_build\Full HEQS\sprites\standard_trailers/medium_sled.pcx 242 450 01 16 36 -30 -8
  498 Y:\Documents\OTTD graphics\HEQS_build\Full HEQS\sprites\standard_trailers/medium_sled.pcx 290 450 09 20 26 -13 -10
  // Standard bulldozer side dump sled - red, loading
  499 Y:\Documents\OTTD graphics\HEQS_build\Full HEQS\sprites\standard_trailers/medium_sled.pcx 34 330 01 24 12 -3 -10
  500 Y:\Documents\OTTD graphics\HEQS_build\Full HEQS\sprites\standard_trailers/medium_sled.pcx 66 330 09 20 26 -11 -9
  501 Y:\Documents\OTTD graphics\HEQS_build\Full HEQS\sprites\standard_trailers/medium_sled.pcx 98 330 01 16 36 -14 -6
  502 Y:\Documents\OTTD graphics\HEQS_build\Full HEQS\sprites\standard_trailers/medium_sled.pcx 146 330 09 20 26 -9 -7
  503 Y:\Documents\OTTD graphics\HEQS_build\Full HEQS\sprites\standard_trailers/medium_sled.pcx 178 330 01 24 12 -9 -16
  504 Y:\Documents\OTTD graphics\HEQS_build\Full HEQS\sprites\standard_trailers/medium_sled.pcx 210 330 09 20 26 -17 -7
  505 Y:\Documents\OTTD graphics\HEQS_build\Full HEQS\sprites\standard_trailers/medium_sled.pcx 242 330 01 16 36 -30 -8
  506 Y:\Documents\OTTD graphics\HEQS_build\Full HEQS\sprites\standard_trailers/medium_sled.pcx 290 330 09 20 26 -13 -10
  // Standard bulldozer side dump sled - red, loaded
  507 Y:\Documents\OTTD graphics\HEQS_build\Full HEQS\sprites\standard_trailers/medium_sled.pcx 34 370 01 24 12 -3 -10
  508 Y:\Documents\OTTD graphics\HEQS_build\Full HEQS\sprites\standard_trailers/medium_sled.pcx 66 370 09 20 26 -11 -9
  509 Y:\Documents\OTTD graphics\HEQS_build\Full HEQS\sprites\standard_trailers/medium_sled.pcx 98 370 01 16 36 -14 -6
  510 Y:\Documents\OTTD graphics\HEQS_build\Full HEQS\sprites\standard_trailers/medium_sled.pcx 146 370 09 20 26 -9 -7
  511 Y:\Documents\OTTD graphics\HEQS_build\Full HEQS\sprites\standard_trailers/medium_sled.pcx 178 370 01 24 12 -9 -16
  512 Y:\Documents\OTTD graphics\HEQS_build\Full HEQS\sprites\standard_trailers/medium_sled.pcx 210 370 09 20 26 -17 -7
  513 Y:\Documents\OTTD graphics\HEQS_build\Full HEQS\sprites\standard_trailers/medium_sled.pcx 242 370 01 16 36 -30 -8
  514 Y:\Documents\OTTD graphics\HEQS_build\Full HEQS\sprites\standard_trailers/medium_sled.pcx 290 370 09 20 26 -13 -10
  // Standard bulldozer side dump sled - grey, loading
  515 Y:\Documents\OTTD graphics\HEQS_build\Full HEQS\sprites\standard_trailers/medium_sled.pcx 34 90 01 24 12 -3 -10
  516 Y:\Documents\OTTD graphics\HEQS_build\Full HEQS\sprites\standard_trailers/medium_sled.pcx 66 90 09 20 26 -11 -9
  517 Y:\Documents\OTTD graphics\HEQS_build\Full HEQS\sprites\standard_trailers/medium_sled.pcx 98 90 01 16 36 -14 -6
  518 Y:\Documents\OTTD graphics\HEQS_build\Full HEQS\sprites\standard_trailers/medium_sled.pcx 146 90 09 20 26 -9 -7
  519 Y:\Documents\OTTD graphics\HEQS_build\Full HEQS\sprites\standard_trailers/medium_sled.pcx 178 90 01 24 12 -9 -16
  520 Y:\Documents\OTTD graphics\HEQS_build\Full HEQS\sprites\standard_trailers/medium_sled.pcx 210 90 09 20 26 -17 -7
  521 Y:\Documents\OTTD graphics\HEQS_build\Full HEQS\sprites\standard_trailers/medium_sled.pcx 242 90 01 16 36 -30 -8
  522 Y:\Documents\OTTD graphics\HEQS_build\Full HEQS\sprites\standard_trailers/medium_sled.pcx 290 90 09 20 26 -13 -10
  // Standard bulldozer side dump sled - grey, loaded
  523 Y:\Documents\OTTD graphics\HEQS_build\Full HEQS\sprites\standard_trailers/medium_sled.pcx 34 130 01 24 12 -3 -10
  524 Y:\Documents\OTTD graphics\HEQS_build\Full HEQS\sprites\standard_trailers/medium_sled.pcx 66 130 09 20 26 -11 -9
  525 Y:\Documents\OTTD graphics\HEQS_build\Full HEQS\sprites\standard_trailers/medium_sled.pcx 98 130 01 16 36 -14 -6
  526 Y:\Documents\OTTD graphics\HEQS_build\Full HEQS\sprites\standard_trailers/medium_sled.pcx 146 130 09 20 26 -9 -7
  527 Y:\Documents\OTTD graphics\HEQS_build\Full HEQS\sprites\standard_trailers/medium_sled.pcx 178 130 01 24 12 -9 -16
  528 Y:\Documents\OTTD graphics\HEQS_build\Full HEQS\sprites\standard_trailers/medium_sled.pcx 210 130 09 20 26 -17 -7
  529 Y:\Documents\OTTD graphics\HEQS_build\Full HEQS\sprites\standard_trailers/medium_sled.pcx 242 130 01 16 36 -30 -8
  530 Y:\Documents\OTTD graphics\HEQS_build\Full HEQS\sprites\standard_trailers/medium_sled.pcx 290 130 09 20 26 -13 -10
  531 * 17	 02 01 28  03 03    00 00  01 00  02 00    00 00  01 00  02 00 // iron ore ?
  532 * 17	 02 01 21  03 03    00 00  03 00  04 00    00 00  03 00  04 00 // coal ?
  533 * 17	 02 01 26  03 03    00 00  05 00  06 00    00 00  05 00  06 00 // grain ?
  534 * 17	 02 01 2E  03 03    00 00  07 00  08 00    00 00  07 00  08 00 // brown ?
  535 * 17	 02 01 2C  03 03    00 00  09 00  0A 00    00 00  09 00  0A 00 // red ?
  536 * 17	 02 01 2D  03 03    00 00  0B 00  0C 00    00 00  0B 00  0C 00 // grey ?
[...]
 2262 Y:\Documents\OTTD graphics\HEQS_build\Full HEQS\sprites\mining_trucks/95t_mining_truck_red.pcx 290 10 09 20 26 -10 -11
  // Rockchuck Peak 95t hauler grey 
 2263 Y:\Documents\OTTD graphics\HEQS_build\Full HEQS\sprites\mining_trucks/95t_mining_truck_grey.pcx 34 10 01 24 12 -5 -13
 2264 Y:\Documents\OTTD graphics\HEQS_build\Full HEQS\sprites\mining_trucks/95t_mining_truck_grey.pcx 66 10 09 20 26 -15 -8
 2265 Y:\Documents\OTTD graphics\HEQS_build\Full HEQS\sprites\mining_trucks/95t_mining_truck_grey.pcx 98 10 01 16 36 -18 -8
 2266 Y:\Documents\OTTD graphics\HEQS_build\Full HEQS\sprites\mining_trucks/95t_mining_truck_grey.pcx 146 10 09 20 26 -11 -9
 2267 Y:\Documents\OTTD graphics\HEQS_build\Full HEQS\sprites\mining_trucks/95t_mining_truck_grey.pcx 178 10 01 24 12 -5 -13
 2268 Y:\Documents\OTTD graphics\HEQS_build\Full HEQS\sprites\mining_trucks/95t_mining_truck_grey.pcx 210 10 09 20 26 -16 -9
 2269 Y:\Documents\OTTD graphics\HEQS_build\Full HEQS\sprites\mining_trucks/95t_mining_truck_grey.pcx 242 10 01 16 36 -20 -10
 2270 Y:\Documents\OTTD graphics\HEQS_build\Full HEQS\sprites\mining_trucks/95t_mining_truck_grey.pcx 290 10 09 20 26 -10 -11
 2271 * 13	 02 01 A1 02 02 00 00 01 00 00 00 01 00
 2272 * 13	 02 01 A2 02 02 00 00 02 00 00 00 02 00
 2273 * 13	 02 01 A3 02 02 00 00 03 00 00 00 03 00
 2274 * 13	 02 01 A4 02 02 00 00 04 00 00 00 04 00
 2275 * 13	 02 01 A5 02 02 00 00 05 00 00 00 05 00
 2276 * 13	 02 01 A6 02 02 00 00 06 00 00 00 06 00
 2277 * 4	 01 01 01 04 // depot sprites
 2278 * 1	 00
 2279 * 1	 00
 2280 Y:\Documents\OTTD graphics\HEQS_build\Full HEQS\sprites\mining_trucks/95t_mining_truck.pcx 370 14 01 12 36 -14 -6
 2281 * 1	 00
 2282 * 9	 02 01 AF 01 01 00 00 00 00
 2283 * 25	 03 01 01 D5 // Action 3 
   06 // number of cargo types to support
   01 A1 00
   08 A2 00
   0E A3 00 
   11 A4 00
   17 A5 00
   FF AF 00 // buy menu sprites
   A6 00 // default sprites

  // Camelback Mountain Mining Truck  240t		2001-2050	37mph
 2284 * 67	 00 01 19 01 D6
    00 \w1-1-1920  // intro date
    02 20     // reliability
    03 19     // vehicle life
    04 19     // class life
    06 0F     // climate
    07 05     // load amount
    08 \b119     // speed in mph * 3.2
    09 50     // running cost factor
    0A 48 4C 00 00 13 28 14 C8        // running cost base
    0E FF     // sprite ID
    0F 00     // capacity
    10 FF     // cargo type 
    11 5D     // cost factor
    12 19     // sound effect
    15 \b30     // speed in mph * 0.8
    16 40 00 00 28     // Bit mask of cargo types available for refitting
    // flips 1D / 1E values: excludes grain, wheat, maize
    17 12     // Callback flags bit mask
    1A 00     // Refit cost, using 25% of the purchase price cost base
    1B 00     // Retire vehicle early, this many years before the end of phase 2
    1C 02     // Miscellaneous vehicle flags
    1D 10 00          // Refittable cargo classes
    1E EF 03          // Non-refittable cargo classes
    1F 8D
    26 0B 00    // Long format introduction date
 2285 * 37	 04 01 7F 01 D6 "Camelback Mountain Mining Truck" 00
 2286 * 102	 04 01 81 01 D4 D0 "Hauls: " 8A "Two 120t belly-dump trailers (240t total capacity)"  
                                0d 98 "Refittable to: " 8A "Most mineral cargos" 00
 2287 * 4	 01 01 01 08
  // Kilimanjaro (Articulated) dump truck empty
 2288 Y:\Documents\OTTD graphics\HEQS_build\Full HEQS\sprites\off_highway_trucks/mining_truck_chassis.pcx 34 10 01 24 12 -5 -16
 2289 Y:\Documents\OTTD graphics\HEQS_build\Full HEQS\sprites\off_highway_trucks/mining_truck_chassis.pcx 66 10 09 20 26 -15 -8
 2290 Y:\Documents\OTTD graphics\HEQS_build\Full HEQS\sprites\off_highway_trucks/mining_truck_chassis.pcx 98 10 01 16 36 -18 -10
 2291 Y:\Documents\OTTD graphics\HEQS_build\Full HEQS\sprites\off_highway_trucks/mining_truck_chassis.pcx 146 10 09 20 26 -11 -9
 2292 Y:\Documents\OTTD graphics\HEQS_build\Full HEQS\sprites\off_highway_trucks/mining_truck_chassis.pcx 178 10 01 24 12 -5 -15
 2293 Y:\Documents\OTTD graphics\HEQS_build\Full HEQS\sprites\off_highway_trucks/mining_truck_chassis.pcx 210 10 09 20 26 -16 -9
 2294 Y:\Documents\OTTD graphics\HEQS_build\Full HEQS\sprites\off_highway_trucks/mining_truck_chassis.pcx 242 10 01 16 36 -20 -10
 2295 Y:\Documents\OTTD graphics\HEQS_build\Full HEQS\sprites\off_highway_trucks/mining_truck_chassis.pcx 290 10 09 20 26 -10 -11
 2296 * 9	 02 01 A1 01 01 00 00 00 00 //normal action2 defining graphics with no loading/loaded stages
 2297 * 4	 01 01 01 04
 2298 * 1	 00
 2299 * 1	 00
 2300 Y:\Documents\OTTD graphics\HEQS_build\Full HEQS\sprites\off_highway_trucks/mining_truck_chassis.pcx 370 14 01 12 36 -14 -6
 2301 * 1	 00
 2302 * 9	 02 01 F1 // action2 buy menu sprites 
      01 // number loading states
      01 // number loaded states
      00 00 // loading sprites
      00 00 // loaded sprites
 2303 * 14	 02 01 F0 // varaction 2 handles buy menu callbacks 
                 81 0C 00 FF //check byte value of variable 81 (no bit shift, FF andmask)
                 01 // range
                   D4 80 23 23 // text for vehicle window
                 F1 00 //otherwise go to next action 2 ID 
 2304 * 22	 02 01 B0 //ID B0
               81 10 00 FF //check byte value of variable 10 (no bit shift, FF andmask)
               03 //check one ranges
               07 80 01 01 //give callback result
               05 80 02 02 //give callback result
               07 80 03 03 //give callback result
               FF FF //otherwise end the callback chain
 2305 * 18	 02 01 B1 //
               81 0C 00 FF // handle callbacks
               02 // range
                 02 80 11 11 // vehicle length CB
                 B0 00 16 16 // articulated vehicle building instructions
               A1 00 //otherwise go to ID A1 (ie. apply vehicle graphics)
 2306 * 10	 03 01 01 D6  // Action 3
    01  // Number of different cargo types to support 
    FF F0 00 // buy menu sprites
    B1 00   // Action 2 ID above  

  // Kilimanjaro Mining Hauler  160t	1200hp	1990-2050	57mph
 2307 * 67	 00 01 19 01 D7
    00 \w1-1-1920  // intro date
    02 20     // reliability
    03 19     // vehicle life
    04 19     // class life
    06 0F     // climate
    07 05     // load amount
    08 \b182     // speed in mph * 3.2
    09 50     // running cost factor
    0A 48 4C 00 00 13 28 14 C8        // running cost base
    0E FF     // sprite ID
    0F \b160     // capacity
    10 FF     // cargo type 
    11 5D     // cost factor
    12 19     // sound effect
    15 \b46     // speed in mph * 0.8
    16 40 00 00 28     // Bit mask of cargo types available for refitting
    // flips 1D / 1E values: excludes grain, wheat, maize
    17 00     // Callback flags bit mask
    1A 00     // Refit cost, using 25% of the purchase price cost base
    1B 00     // Retire vehicle early, this many years before the end of phase 2
    1C 02     // Miscellaneous vehicle flags
    1D 10 00          // Refittable cargo classes
    1E EF 03          // Non-refittable cargo classes
    1F \d726840   // Long format introduction date (dword)
 2308 * 39	 04 01 7F 01 D7 "Kilimanjaro Unitised Mining Truck" 00
 2309 * 4	 01 01 07 08
  // unitised hauler empty
 2310 Y:\Documents\OTTD graphics\HEQS_build\Full HEQS\sprites\mining_trucks/unitised_mining_truck.pcx 34 10 01 24 12 -5 -15
 2311 Y:\Documents\OTTD graphics\HEQS_build\Full HEQS\sprites\mining_trucks/unitised_mining_truck.pcx 66 10 01 22 30 -17 -10
 2312 Y:\Documents\OTTD graphics\HEQS_build\Full HEQS\sprites\mining_trucks/unitised_mining_truck.pcx 98 10 01 16 36 -14 -9
 2313 Y:\Documents\OTTD graphics\HEQS_build\Full HEQS\sprites\mining_trucks/unitised_mining_truck.pcx 146 10 01 22 30 -10 -10
 2314 Y:\Documents\OTTD graphics\HEQS_build\Full HEQS\sprites\mining_trucks/unitised_mining_truck.pcx 178 10 01 24 12 -5 -13
 2315 Y:\Documents\OTTD graphics\HEQS_build\Full HEQS\sprites\mining_trucks/unitised_mining_truck.pcx 210 10 01 22 30 -18 -11
 2316 Y:\Documents\OTTD graphics\HEQS_build\Full HEQS\sprites\mining_trucks/unitised_mining_truck.pcx 242 10 01 16 36 -14 -10
 2317 Y:\Documents\OTTD graphics\HEQS_build\Full HEQS\sprites\mining_trucks/unitised_mining_truck.pcx 290 10 01 22 30 -9 -11
  // unitised hauler coal
 2318 Y:\Documents\OTTD graphics\HEQS_build\Full HEQS\sprites\mining_trucks/unitised_mining_truck_coal.pcx 34 10 01 24 12 -5 -15
 2319 Y:\Documents\OTTD graphics\HEQS_build\Full HEQS\sprites\mining_trucks/unitised_mining_truck_coal.pcx 66 10 01 22 30 -17 -10
 2320 Y:\Documents\OTTD graphics\HEQS_build\Full HEQS\sprites\mining_trucks/unitised_mining_truck_coal.pcx 98 10 01 16 36 -14 -9
 2321 Y:\Documents\OTTD graphics\HEQS_build\Full HEQS\sprites\mining_trucks/unitised_mining_truck_coal.pcx 146 10 01 22 30 -10 -10
 2322 Y:\Documents\OTTD graphics\HEQS_build\Full HEQS\sprites\mining_trucks/unitised_mining_truck_coal.pcx 178 10 01 24 12 -5 -13
 2323 Y:\Documents\OTTD graphics\HEQS_build\Full HEQS\sprites\mining_trucks/unitised_mining_truck_coal.pcx 210 10 01 22 30 -18 -11
 2324 Y:\Documents\OTTD graphics\HEQS_build\Full HEQS\sprites\mining_trucks/unitised_mining_truck_coal.pcx 242 10 01 16 36 -14 -10
 2325 Y:\Documents\OTTD graphics\HEQS_build\Full HEQS\sprites\mining_trucks/unitised_mining_truck_coal.pcx 290 10 01 22 30 -9 -11
  // unitised hauler iron 
 2326 Y:\Documents\OTTD graphics\HEQS_build\Full HEQS\sprites\mining_trucks/unitised_mining_truck_iron.pcx 34 10 01 24 12 -5 -15
 2327 Y:\Documents\OTTD graphics\HEQS_build\Full HEQS\sprites\mining_trucks/unitised_mining_truck_iron.pcx 66 10 01 22 30 -17 -10
 2328 Y:\Documents\OTTD graphics\HEQS_build\Full HEQS\sprites\mining_trucks/unitised_mining_truck_iron.pcx 98 10 01 16 36 -14 -9
 2329 Y:\Documents\OTTD graphics\HEQS_build\Full HEQS\sprites\mining_trucks/unitised_mining_truck_iron.pcx 146 10 01 22 30 -10 -10
 2330 Y:\Documents\OTTD graphics\HEQS_build\Full HEQS\sprites\mining_trucks/unitised_mining_truck_iron.pcx 178 10 01 24 12 -5 -13
 2331 Y:\Documents\OTTD graphics\HEQS_build\Full HEQS\sprites\mining_trucks/unitised_mining_truck_iron.pcx 210 10 01 22 30 -18 -11
 2332 Y:\Documents\OTTD graphics\HEQS_build\Full HEQS\sprites\mining_trucks/unitised_mining_truck_iron.pcx 242 10 01 16 36 -14 -10
 2333 Y:\Documents\OTTD graphics\HEQS_build\Full HEQS\sprites\mining_trucks/unitised_mining_truck_iron.pcx 290 10 01 22 30 -9 -11
  // unitised hauler brown
 2334 Y:\Documents\OTTD graphics\HEQS_build\Full HEQS\sprites\mining_trucks/unitised_mining_truck_brown.pcx 34 10 01 24 12 -5 -15
 2335 Y:\Documents\OTTD graphics\HEQS_build\Full HEQS\sprites\mining_trucks/unitised_mining_truck_brown.pcx 66 10 01 22 30 -17 -10
 2336 Y:\Documents\OTTD graphics\HEQS_build\Full HEQS\sprites\mining_trucks/unitised_mining_truck_brown.pcx 98 10 01 16 36 -14 -9
 2337 Y:\Documents\OTTD graphics\HEQS_build\Full HEQS\sprites\mining_trucks/unitised_mining_truck_brown.pcx 146 10 01 22 30 -10 -10
 2338 Y:\Documents\OTTD graphics\HEQS_build\Full HEQS\sprites\mining_trucks/unitised_mining_truck_brown.pcx 178 10 01 24 12 -5 -13
 2339 Y:\Documents\OTTD graphics\HEQS_build\Full HEQS\sprites\mining_trucks/unitised_mining_truck_brown.pcx 210 10 01 22 30 -18 -11
 2340 Y:\Documents\OTTD graphics\HEQS_build\Full HEQS\sprites\mining_trucks/unitised_mining_truck_brown.pcx 242 10 01 16 36 -14 -10
 2341 Y:\Documents\OTTD graphics\HEQS_build\Full HEQS\sprites\mining_trucks/unitised_mining_truck_brown.pcx 290 10 01 22 30 -9 -11
  // unitised hauler white 
 2342 Y:\Documents\OTTD graphics\HEQS_build\Full HEQS\sprites\mining_trucks/unitised_mining_truck_white.pcx 34 10 01 24 12 -5 -15
 2343 Y:\Documents\OTTD graphics\HEQS_build\Full HEQS\sprites\mining_trucks/unitised_mining_truck_white.pcx 66 10 01 22 30 -17 -10
 2344 Y:\Documents\OTTD graphics\HEQS_build\Full HEQS\sprites\mining_trucks/unitised_mining_truck_white.pcx 98 10 01 16 36 -14 -9
 2345 Y:\Documents\OTTD graphics\HEQS_build\Full HEQS\sprites\mining_trucks/unitised_mining_truck_white.pcx 146 10 01 22 30 -10 -10
 2346 Y:\Documents\OTTD graphics\HEQS_build\Full HEQS\sprites\mining_trucks/unitised_mining_truck_white.pcx 178 10 01 24 12 -5 -13
 2347 Y:\Documents\OTTD graphics\HEQS_build\Full HEQS\sprites\mining_trucks/unitised_mining_truck_white.pcx 210 10 01 22 30 -18 -11
 2348 Y:\Documents\OTTD graphics\HEQS_build\Full HEQS\sprites\mining_trucks/unitised_mining_truck_white.pcx 242 10 01 16 36 -14 -10
 2349 Y:\Documents\OTTD graphics\HEQS_build\Full HEQS\sprites\mining_trucks/unitised_mining_truck_white.pcx 290 10 01 22 30 -9 -11
  // unitised hauler red
 2350 Y:\Documents\OTTD graphics\HEQS_build\Full HEQS\sprites\mining_trucks/unitised_mining_truck_red.pcx 34 10 01 24 12 -5 -15
 2351 Y:\Documents\OTTD graphics\HEQS_build\Full HEQS\sprites\mining_trucks/unitised_mining_truck_red.pcx 66 10 01 22 30 -17 -10
 2352 Y:\Documents\OTTD graphics\HEQS_build\Full HEQS\sprites\mining_trucks/unitised_mining_truck_red.pcx 98 10 01 16 36 -14 -9
 2353 Y:\Documents\OTTD graphics\HEQS_build\Full HEQS\sprites\mining_trucks/unitised_mining_truck_red.pcx 146 10 01 22 30 -10 -10
 2354 Y:\Documents\OTTD graphics\HEQS_build\Full HEQS\sprites\mining_trucks/unitised_mining_truck_red.pcx 178 10 01 24 12 -5 -13
 2355 Y:\Documents\OTTD graphics\HEQS_build\Full HEQS\sprites\mining_trucks/unitised_mining_truck_red.pcx 210 10 01 22 30 -18 -11
 2356 Y:\Documents\OTTD graphics\HEQS_build\Full HEQS\sprites\mining_trucks/unitised_mining_truck_red.pcx 242 10 01 16 36 -14 -10
 2357 Y:\Documents\OTTD graphics\HEQS_build\Full HEQS\sprites\mining_trucks/unitised_mining_truck_red.pcx 290 10 01 22 30 -9 -11
  // unitised hauler grey
 2358 Y:\Documents\OTTD graphics\HEQS_build\Full HEQS\sprites\mining_trucks/unitised_mining_truck_grey.pcx 34 10 01 24 12 -5 -15
 2359 Y:\Documents\OTTD graphics\HEQS_build\Full HEQS\sprites\mining_trucks/unitised_mining_truck_grey.pcx 66 10 01 22 30 -17 -10
 2360 Y:\Documents\OTTD graphics\HEQS_build\Full HEQS\sprites\mining_trucks/unitised_mining_truck_grey.pcx 98 10 01 16 36 -14 -9
 2361 Y:\Documents\OTTD graphics\HEQS_build\Full HEQS\sprites\mining_trucks/unitised_mining_truck_grey.pcx 146 10 01 22 30 -10 -10
 2362 Y:\Documents\OTTD graphics\HEQS_build\Full HEQS\sprites\mining_trucks/unitised_mining_truck_grey.pcx 178 10 01 24 12 -5 -13
 2363 Y:\Documents\OTTD graphics\HEQS_build\Full HEQS\sprites\mining_trucks/unitised_mining_truck_grey.pcx 210 10 01 22 30 -18 -11
 2364 Y:\Documents\OTTD graphics\HEQS_build\Full HEQS\sprites\mining_trucks/unitised_mining_truck_grey.pcx 242 10 01 16 36 -14 -10
 2365 Y:\Documents\OTTD graphics\HEQS_build\Full HEQS\sprites\mining_trucks/unitised_mining_truck_grey.pcx 290 10 01 22 30 -9 -11
 2366 * 13	 02 01 A1 02 02 00 00 01 00 00 00 01 00
 2367 * 13	 02 01 A2 02 02 00 00 02 00 00 00 02 00
 2368 * 13	 02 01 A3 02 02 00 00 03 00 00 00 03 00
 2369 * 13	 02 01 A4 02 02 00 00 04 00 00 00 04 00
 2370 * 13	 02 01 A5 02 02 00 00 05 00 00 00 05 00
 2371 * 13	 02 01 A6 02 02 00 00 06 00 00 00 06 00
 2372 * 4	 01 01 01 04
 2373 * 1	 00
 2374 * 1	 00
 2375 Y:\Documents\OTTD graphics\HEQS_build\Full HEQS\sprites\mining_trucks/unitised_mining_truck.pcx 370 14 01 12 36 -14 -6
 2376 * 1	 00
 2377 * 9	 02 01 AF 01 01 00 00 00 00
 2378 * 25	 03 01 01 D7 // Action 3 
   06 // number of cargo types
   01 A1 00
   08 A2 00
   0E A3 00
   11 A4 00
   17 A5 00
   FF AF 00 // buy menu sprites
   A6 00 // default sprites
  // --------------------------- end of Dump trucks / Mining Haulers --------------------- //

  // --------------------------- Off-Highway Trucks --------------------- //

  // Cascade Off-Highway Truck  90t		1960-1982		30mph
 2379 * 67	 00 01 19 01 23
    00 \w1-1-1920  // intro date
    02 20     // reliability
    03 19     // vehicle life
    04 19     // class life
    06 00     // climate  !! set to 00 to hide this vehicle until finished
    07 05     // load amount
    08 \b96     // speed in mph * 3.2
    09 50     // running cost factor
    0A 48 4C 00 00 13 28 14 C8        // running cost base
    0E FF     // sprite ID
    0F 00     // capacity
    10 FF     // cargo type 
    11 5D     // cost factor
    12 19     // sound effect
    15 \b24     // speed in mph * 0.8
    16 40 00 00 28     // Bit mask of cargo types available for refitting
    // flips 1D / 1E values: excludes grain, wheat, maize
    17 16     // Callback flags bit mask
    1A 00     // Refit cost, using 25% of the purchase price cost base
    1B 00     // Retire vehicle early, this many years before the end of phase 2
    1C 02     // Miscellaneous vehicle flags
    1D 10 00          // Refittable cargo classes
    1E EF 03          // Non-refittable cargo classes
    1F 72 EC 0A 00    // Long format introduction date
 2380 * 31	 04 01 7F 01 23 "Cascade Off-Highway Truck" 00
 2381 * 4	 01 01 01 08
  // Cascade off-highway truck empty
 2382 Y:\Documents\OTTD graphics\HEQS_build\Full HEQS\sprites\off_highway_trucks/1960_truck_3_axle.pcx 34 10 01 24 12 -5 -18
 2383 Y:\Documents\OTTD graphics\HEQS_build\Full HEQS\sprites\off_highway_trucks/1960_truck_3_axle.pcx 66 10 09 20 26 -17 -8
 2384 Y:\Documents\OTTD graphics\HEQS_build\Full HEQS\sprites\off_highway_trucks/1960_truck_3_axle.pcx 98 10 01 16 36 -10 -10
 2385 Y:\Documents\OTTD graphics\HEQS_build\Full HEQS\sprites\off_highway_trucks/1960_truck_3_axle.pcx 146 10 09 20 26 -11 -9
 2386 Y:\Documents\OTTD graphics\HEQS_build\Full HEQS\sprites\off_highway_trucks/1960_truck_3_axle.pcx 178 10 01 24 12 -5 -16
 2387 Y:\Documents\OTTD graphics\HEQS_build\Full HEQS\sprites\off_highway_trucks/1960_truck_3_axle.pcx 210 10 09 20 26 -16 -9
 2388 Y:\Documents\OTTD graphics\HEQS_build\Full HEQS\sprites\off_highway_trucks/1960_truck_3_axle.pcx 242 10 01 16 36 -18 -10
 2389 Y:\Documents\OTTD graphics\HEQS_build\Full HEQS\sprites\off_highway_trucks/1960_truck_3_axle.pcx 290 10 09 20 26 -8 -11
 2390 * 9	 02 01 A1 01 01 00 00 00 00 //normal action2 defining graphics with no loading/loaded stages
 2391 * 4	 01 01 01 04
 2392 * 1	 00
 2393 * 1	 00
 2394 Y:\Documents\OTTD graphics\HEQS_build\Full HEQS\sprites\off_highway_trucks/1960_truck_3_axle.pcx 242 10 01 16 36 -18 -8
 2395 * 1	 00
 2396 * 14	 02 01 B0 //ID B0
               81 10 00 FF //check byte value of variable 10 (no bit shift, FF andmask)
               01 //check one ranges
               06 80 01 01 //give callback result
               FF FF //otherwise end the callback chain
 2397 * 14	 02 01 B1 //ID B1
               81 0C 00 FF //check byte value of variable 81 (no bit shift, FF andmask)
               01 //check one range
               B0 00 16 16 //go to ID B0 for value 16 (ie. go to the articulated vehicle building instructions)
               A1 00 //otherwise go to ID A1 (ie. apply vehicle graphics)
 2398 * 7	 03   // Action 3
    01  // RV 
    01  // Number of vehicles this action associate graphics with 
    23  // Vehicle ID
    00  // Number of different cargo types to support  
    B1 00   // Action 2 ID above  
// --------------------------- end of Off-Highway Trucks --------------------- //
//!!Warning (97): Set 00 defined by the previous Action 1 (sprite 2391) has not been used.
//!!For feature 1 the following cargoIDs have not been used since their most recent definition:
//!!06 (last defined at sprite 1735)
//!!0C (last defined at sprite 424)
//!!0D (last defined at sprite 425)
//!!0F (last defined at sprite 613)
//!!17 (last defined at sprite 1737)
//!!18 (last defined at sprite 261)
//!!19 (last defined at sprite 262)
//!!26 (last defined at sprite 1846)
//!!2C (last defined at sprite 535)
//!!2D (last defined at sprite 536)
//!!2F (last defined at sprite 690)
//!!37 (last defined at sprite 1848)
