// Automatically generated by GRFCODEC. Do not modify!
// (Info version 7)
// Format: spritenum pcxfile xpos ypos compression ysize xsize xrel yrel
    0 * 4	 79 03 00 00
    1 * 142	 08 06 "AP" 12 01 "HEQS v0.1" 00 "Heavy equipment "
	 "(extended set) v0.1 in dual company "
	 "colours. Brought to you by"
	 "andythenorth and Richard Wheeler (Zephyris)"
	 "2008" 00
    2 * 170	 00 08 01 29 00 09 "PASSCOALMAILOIL_LVSTGOODGRAIWOODIORESTELVALU"
	 "PAPRFOODFRUTCOREWATRRUBRSUGRTOYSBATTSWETTOFFCOLACT"
	 "CDBUBLPLSTFZDRWHEAGOLDMAIZTWODDIAM___A___B___C___D"
	 "___E___F___G___H___I"
    3 * 67	 00 01 19 01 00 00 00 00 02 20 03 19 04 23 06 00 07 05 08 E0 09 08 0A 48 4C 00 00 13 00 14 20 0E
	 FF 0F 1E 10 FF 11 00 12 00 15 38 16 00 00 00 00 17 16 1A 00 1B 00 1C 02 1D FF 03 1E 01 00 1F 60
	 B3 0A 00
    4 * 67	 00 01 19 01 0A 00 00 00 02 20 03 11 04 23 06 0F 07 05 08 80 09 1E 0A 48 4C 00 00 13 14 14 18 0E
	 FF 0F 00 10 FF 11 34 12 17 15 20 16 00 00 00 00 17 16 1A 00 1B 00 1C 02 1D FF 03 1E 00 00 1F 60
	 B3 0A 00
    5 * 67	 00 01 19 01 0B 00 00 00 02 20 03 11 04 23 06 0F 07 05 08 80 09 1E 0A 48 4C 00 00 13 14 14 18 0E
	 FF 0F 00 10 FF 11 34 12 17 15 20 16 00 00 00 00 17 16 1A 00 1B 00 1C 02 1D FF 03 1E 00 00 1F 60
	 B3 0A 00
    6 * 67	 00 01 19 01 0C 00 00 00 02 20 03 11 04 23 06 0F 07 05 08 80 09 1E 0A 48 4C 00 00 13 14 14 18 0E
	 FF 0F 00 10 FF 11 34 12 17 15 20 16 00 00 00 00 17 16 1A 00 1B 00 1C 02 1D FF 03 1E 00 00 1F 60
	 B3 0A 00
    7 * 29	 04 01 7F 01 01 "[Generic Large Trailer]" 00


   // ----------- Trailer dollies -------------//
   // Large dolly
    8 * 67	 00 01 19 01 03 // Action 0
      00 00 00
      02 20
      03 19
      04 23
      06 00 
      07 05
      08 E0
      09 08 0A 48 4C 00 00 13 00 14 20
      0E FF
      0F 32
      10 FF
      11 00
      12 00
      15 38
      16 00 00 00 00
      17 16
      1A 00
      1B 00
      1C 02 
      1D FF 03     // Refittable cargo classes 
      1E 01 00     // Non-refittable cargo classes
      1F 60 B3 0A 00

    9 * 19	 04 01 7F 01 03 "[Large Dolly]" 00
   10 * 4	 01 01 01 08
   11 Y:\Documents\OTTD graphics\HEQS_build\Full HEQS\sprites/dolly_large.pcx 34 10 01 24 12 -5 -13
   12 Y:\Documents\OTTD graphics\HEQS_build\Full HEQS\sprites/dolly_large.pcx 66 10 09 20 26 -12 -10
   13 Y:\Documents\OTTD graphics\HEQS_build\Full HEQS\sprites/dolly_large.pcx 98 10 01 16 36 -18 -8
   14 Y:\Documents\OTTD graphics\HEQS_build\Full HEQS\sprites/dolly_large.pcx 146 10 09 20 26 -9 -10
   15 Y:\Documents\OTTD graphics\HEQS_build\Full HEQS\sprites/dolly_large.pcx 178 01 01 24 12 -5 -13
   16 Y:\Documents\OTTD graphics\HEQS_build\Full HEQS\sprites/dolly_large.pcx 210 10 09 20 26 -17 -9
   17 Y:\Documents\OTTD graphics\HEQS_build\Full HEQS\sprites/dolly_large.pcx 242 10 01 16 36 -18 -8
   18 Y:\Documents\OTTD graphics\HEQS_build\Full HEQS\sprites/dolly_large.pcx 290 10 09 20 26 -9 -10
   19 * 9	 02 01 BB 01 01 00 00 00 00
   20 * 14	 02 01 AA 81 0C 00 FF 01 05 80 11 11 BB 00
   21 * 7	 03   // Action 3
      01  // RV 
      01  // Number of vehicles this action associate graphics with 
      03   // Vehicle ID
      00  // Number of different cargo types to support  
      AA 00

   // Very Large dolly
   22 * 67	 00 01 19 01 04 // Action 0
      00 00 00
      02 20
      03 19
      04 23
      06 00 
      07 05
      08 E0
      09 08 0A 48 4C 00 00 13 00 14 20
      0E FF
      0F 32
      10 FF
      11 00
      12 00
      15 38
      16 00 00 00 00
      17 16
      1A 00
      1B 00
      1C 02 
      1D FF 03     // Refittable cargo classes 
      1E 01 00     // Non-refittable cargo classes
      1F 60 B3 0A 00

   23 * 24	 04 01 7F 01 04 "[Very Large Dolly]" 00
   24 * 4	 01 01 01 08
   25 Y:\Documents\OTTD graphics\HEQS_build\Full HEQS\sprites/dolly_very_large.pcx 34 10 01 24 12 -5 -13
   26 Y:\Documents\OTTD graphics\HEQS_build\Full HEQS\sprites/dolly_very_large.pcx 66 10 09 20 26 -14 -11
   27 Y:\Documents\OTTD graphics\HEQS_build\Full HEQS\sprites/dolly_very_large.pcx 98 10 01 16 36 -18 -8
   28 Y:\Documents\OTTD graphics\HEQS_build\Full HEQS\sprites/dolly_very_large.pcx 146 10 09 20 26 -9 -10
   29 Y:\Documents\OTTD graphics\HEQS_build\Full HEQS\sprites/dolly_very_large.pcx 178 01 01 24 12 -6 -14
   30 Y:\Documents\OTTD graphics\HEQS_build\Full HEQS\sprites/dolly_very_large.pcx 210 10 09 20 26 -21 -6
   31 Y:\Documents\OTTD graphics\HEQS_build\Full HEQS\sprites/dolly_very_large.pcx 242 10 01 16 36 -18 -8
   32 Y:\Documents\OTTD graphics\HEQS_build\Full HEQS\sprites/dolly_very_large.pcx 290 10 09 20 26 -9 -10
   33 * 9	 02 01 BB 01 01 00 00 00 00
   34 * 14	 02 01 AA 81 0C 00 FF 01 05 80 11 11 BB 00
   35 * 7	 03   // Action 3
      01  // RV 
      01  // Number of vehicles this action associate graphics with 
      04   // Vehicle ID
      00  // Number of different cargo types to support  
      AA 00
   // ----------------- end trailer dollies -------------------//

   // ------------ Medium Trailers ------------------ //

   // Medium Trailers
   36 * 67	 00 01 19 01 01 
      00 00 00
      02 20
      03 19
      04 23
      06 00 
      07 05
      08 E0
      09 08 0A 48 4C 00 00 13 00 14 28
      0E FF
      0F 32
      10 FF
      11 00
      12 00
      15 38
      16 00 00 00 00
      17 16
      1A 00
      1B 00
      1C 02 
      1D FF 03     // Refittable cargo classes 
      1E 01 00     // Non-refittable cargo classes
      1F 60 B3 0A 00
   37 * 30	 04 01 7F 01 00 "[Generic Medium Trailer]" 00

   // Medium Goods Trailer
   38 * 4	 01 01 01 08
   39 Y:\Documents\OTTD graphics\HEQS_build\Full HEQS\sprites\medium_trailers/box_trailer_med.pcx 34 15 01 24 12 -3 -10
   40 Y:\Documents\OTTD graphics\HEQS_build\Full HEQS\sprites\medium_trailers/box_trailer_med.pcx 66 15 01 20 26 -11 -9
   41 Y:\Documents\OTTD graphics\HEQS_build\Full HEQS\sprites\medium_trailers/box_trailer_med.pcx 98 15 01 16 36 -14 -6
   42 Y:\Documents\OTTD graphics\HEQS_build\Full HEQS\sprites\medium_trailers/box_trailer_med.pcx 146 15 01 20 26 -9 -7
   43 Y:\Documents\OTTD graphics\HEQS_build\Full HEQS\sprites\medium_trailers/box_trailer_med.pcx 178 15 01 24 12 -9 -16
   44 Y:\Documents\OTTD graphics\HEQS_build\Full HEQS\sprites\medium_trailers/box_trailer_med.pcx 210 15 01 20 26 -17 -7
   45 Y:\Documents\OTTD graphics\HEQS_build\Full HEQS\sprites\medium_trailers/box_trailer_med.pcx 242 15 01 16 36 -14 -6
   46 Y:\Documents\OTTD graphics\HEQS_build\Full HEQS\sprites\medium_trailers/box_trailer_med.pcx 290 15 01 20 26 -13 -10
   47 * 9	 02 01 05 01 01 00 00 00 00

   48 * 4	 01 01 01 08
   49 Y:\Documents\OTTD graphics\HEQS_build\Full HEQS\sprites/heqs2.pcx 434 40 01 18 8 -3 -10
   50 Y:\Documents\OTTD graphics\HEQS_build\Full HEQS\sprites/heqs2.pcx 450 40 09 16 20 -14 -7
   51 Y:\Documents\OTTD graphics\HEQS_build\Full HEQS\sprites/heqs2.pcx 482 40 01 12 28 -14 -6
   52 Y:\Documents\OTTD graphics\HEQS_build\Full HEQS\sprites/heqs2.pcx 530 40 09 16 20 -6 -8
   53 Y:\Documents\OTTD graphics\HEQS_build\Full HEQS\sprites/heqs2.pcx 562 40 01 18 8 -3 -10
   54 Y:\Documents\OTTD graphics\HEQS_build\Full HEQS\sprites/heqs2.pcx 578 40 09 16 20 -14 -8
   55 Y:\Documents\OTTD graphics\HEQS_build\Full HEQS\sprites/heqs2.pcx 610 40 01 12 28 -14 -6
   56 Y:\Documents\OTTD graphics\HEQS_build\Full HEQS\sprites/heqs2.pcx 658 40 09 16 20 -6 -7
   57 * 9	 02 01 0A 01 01 00 00 00 00

   // Medium end dump trailer - empty
   58 * 4	 01 01 11 08
   59 Y:\Documents\OTTD graphics\HEQS_build\Full HEQS\sprites\medium_trailers/end_dump_trailer_med.pcx 34 15 01 24 12 -3 -10
   60 Y:\Documents\OTTD graphics\HEQS_build\Full HEQS\sprites\medium_trailers/end_dump_trailer_med.pcx 66 15 09 20 26 -11 -9
   61 Y:\Documents\OTTD graphics\HEQS_build\Full HEQS\sprites\medium_trailers/end_dump_trailer_med.pcx 98 15 01 16 36 -14 -6
   62 Y:\Documents\OTTD graphics\HEQS_build\Full HEQS\sprites\medium_trailers/end_dump_trailer_med.pcx 146 15 09 20 26 -9 -7
   63 Y:\Documents\OTTD graphics\HEQS_build\Full HEQS\sprites\medium_trailers/end_dump_trailer_med.pcx 178 15 01 24 12 -9 -16
   64 Y:\Documents\OTTD graphics\HEQS_build\Full HEQS\sprites\medium_trailers/end_dump_trailer_med.pcx 210 15 09 20 26 -17 -7
   65 Y:\Documents\OTTD graphics\HEQS_build\Full HEQS\sprites\medium_trailers/end_dump_trailer_med.pcx 242 15 01 16 36 -14 -6
   66 Y:\Documents\OTTD graphics\HEQS_build\Full HEQS\sprites\medium_trailers/end_dump_trailer_med.pcx 290 15 09 20 26 -13 -10

   // Medium end dump - iron ore, loading  !! this isn't iron ore??
   67 Y:\Documents\OTTD graphics\HEQS_build\Full HEQS\sprites\medium_trailers/end_dump_trailer_med_iron.pcx 34 15 01 24 12 -3 -10
   68 Y:\Documents\OTTD graphics\HEQS_build\Full HEQS\sprites\medium_trailers/end_dump_trailer_med_iron.pcx 66 15 09 20 20 -11 -9
   69 Y:\Documents\OTTD graphics\HEQS_build\Full HEQS\sprites\medium_trailers/end_dump_trailer_med_iron.pcx 98 15 01 16 36 -14 -6
   70 Y:\Documents\OTTD graphics\HEQS_build\Full HEQS\sprites\medium_trailers/end_dump_trailer_med_iron.pcx 146 15 09 20 26 -9 -7
   71 Y:\Documents\OTTD graphics\HEQS_build\Full HEQS\sprites\medium_trailers/end_dump_trailer_med_iron.pcx 178 15 01 24 12 -9 -16
   72 Y:\Documents\OTTD graphics\HEQS_build\Full HEQS\sprites\medium_trailers/end_dump_trailer_med_iron.pcx 210 15 09 20 26 -17 -7
   73 Y:\Documents\OTTD graphics\HEQS_build\Full HEQS\sprites\medium_trailers/end_dump_trailer_med_iron.pcx 242 15 01 16 36 -14 -6
   74 Y:\Documents\OTTD graphics\HEQS_build\Full HEQS\sprites\medium_trailers/end_dump_trailer_med_iron.pcx 290 15 09 20 26 -13 -10
   // Medium end dump - iron ore, loaded  !! this isn't iron ore??
   75 Y:\Documents\OTTD graphics\HEQS_build\Full HEQS\sprites\medium_trailers/end_dump_trailer_med_iron.pcx 34 15 01 24 12 -3 -10
   76 Y:\Documents\OTTD graphics\HEQS_build\Full HEQS\sprites\medium_trailers/end_dump_trailer_med_iron.pcx 66 15 09 20 20 -11 -9
   77 Y:\Documents\OTTD graphics\HEQS_build\Full HEQS\sprites\medium_trailers/end_dump_trailer_med_iron.pcx 98 15 01 16 36 -14 -6
   78 Y:\Documents\OTTD graphics\HEQS_build\Full HEQS\sprites\medium_trailers/end_dump_trailer_med_iron.pcx 146 15 09 20 26 -9 -7
   79 Y:\Documents\OTTD graphics\HEQS_build\Full HEQS\sprites\medium_trailers/end_dump_trailer_med_iron.pcx 178 15 01 24 12 -9 -16
   80 Y:\Documents\OTTD graphics\HEQS_build\Full HEQS\sprites\medium_trailers/end_dump_trailer_med_iron.pcx 210 15 09 20 26 -17 -7
   81 Y:\Documents\OTTD graphics\HEQS_build\Full HEQS\sprites\medium_trailers/end_dump_trailer_med_iron.pcx 242 15 01 16 36 -14 -6
   82 Y:\Documents\OTTD graphics\HEQS_build\Full HEQS\sprites\medium_trailers/end_dump_trailer_med_iron.pcx 290 15 09 20 26 -13 -10

   // Medium end dump - coal, loading
   83 Y:\Documents\OTTD graphics\HEQS_build\Full HEQS\sprites\medium_trailers/end_dump_trailer_med_coal.pcx 34 15 01 24 12 -3 -10
   84 Y:\Documents\OTTD graphics\HEQS_build\Full HEQS\sprites\medium_trailers/end_dump_trailer_med_coal.pcx 66 15 09 20 26 -11 -9
   85 Y:\Documents\OTTD graphics\HEQS_build\Full HEQS\sprites\medium_trailers/end_dump_trailer_med_coal.pcx 98 15 01 16 36 -14 -6
   86 Y:\Documents\OTTD graphics\HEQS_build\Full HEQS\sprites\medium_trailers/end_dump_trailer_med_coal.pcx 146 15 09 20 26 -9 -7
   87 Y:\Documents\OTTD graphics\HEQS_build\Full HEQS\sprites\medium_trailers/end_dump_trailer_med_coal.pcx 178 15 01 24 12 -9 -16
   88 Y:\Documents\OTTD graphics\HEQS_build\Full HEQS\sprites\medium_trailers/end_dump_trailer_med_coal.pcx 210 15 09 20 26 -17 -7
   89 Y:\Documents\OTTD graphics\HEQS_build\Full HEQS\sprites\medium_trailers/end_dump_trailer_med_coal.pcx 242 15 01 16 36 -14 -6
   90 Y:\Documents\OTTD graphics\HEQS_build\Full HEQS\sprites\medium_trailers/end_dump_trailer_med_coal.pcx 290 15 09 20 26 -13 -10
   // Medium end dump - coal, loaded
   91 Y:\Documents\OTTD graphics\HEQS_build\Full HEQS\sprites\medium_trailers/end_dump_trailer_med_coal.pcx 34 15 01 24 12 -3 -10
   92 Y:\Documents\OTTD graphics\HEQS_build\Full HEQS\sprites\medium_trailers/end_dump_trailer_med_coal.pcx 66 15 09 20 26 -11 -9
   93 Y:\Documents\OTTD graphics\HEQS_build\Full HEQS\sprites\medium_trailers/end_dump_trailer_med_coal.pcx 98 15 01 16 36 -14 -6
   94 Y:\Documents\OTTD graphics\HEQS_build\Full HEQS\sprites\medium_trailers/end_dump_trailer_med_coal.pcx 146 15 09 20 26 -9 -7
   95 Y:\Documents\OTTD graphics\HEQS_build\Full HEQS\sprites\medium_trailers/end_dump_trailer_med_coal.pcx 178 15 01 24 12 -9 -16
   96 Y:\Documents\OTTD graphics\HEQS_build\Full HEQS\sprites\medium_trailers/end_dump_trailer_med_coal.pcx 210 15 09 20 26 -17 -7
   97 Y:\Documents\OTTD graphics\HEQS_build\Full HEQS\sprites\medium_trailers/end_dump_trailer_med_coal.pcx 242 15 01 16 36 -14 -6
   98 Y:\Documents\OTTD graphics\HEQS_build\Full HEQS\sprites\medium_trailers/end_dump_trailer_med_coal.pcx 290 15 09 20 26 -13 -10

   // Medium end dump - grain, loading
   99 Y:\Documents\OTTD graphics\HEQS_build\Full HEQS\sprites\medium_trailers/end_dump_trailer_med_grain.pcx 34 15 01 24 12 -3 -10
  100 Y:\Documents\OTTD graphics\HEQS_build\Full HEQS\sprites\medium_trailers/end_dump_trailer_med_grain.pcx 66 15 09 20 26 -11 -9
  101 Y:\Documents\OTTD graphics\HEQS_build\Full HEQS\sprites\medium_trailers/end_dump_trailer_med_grain.pcx 98 15 01 16 36 -14 -6
  102 Y:\Documents\OTTD graphics\HEQS_build\Full HEQS\sprites\medium_trailers/end_dump_trailer_med_grain.pcx 146 15 09 20 26 -9 -7
  103 Y:\Documents\OTTD graphics\HEQS_build\Full HEQS\sprites\medium_trailers/end_dump_trailer_med_grain.pcx 178 15 01 24 12 -9 -16
  104 Y:\Documents\OTTD graphics\HEQS_build\Full HEQS\sprites\medium_trailers/end_dump_trailer_med_grain.pcx 210 15 09 20 26 -17 -7
  105 Y:\Documents\OTTD graphics\HEQS_build\Full HEQS\sprites\medium_trailers/end_dump_trailer_med_grain.pcx 242 15 01 16 36 -14 -6
  106 Y:\Documents\OTTD graphics\HEQS_build\Full HEQS\sprites\medium_trailers/end_dump_trailer_med_grain.pcx 290 15 09 20 26 -13 -10
  // Medium end dump - grain, loaded
  107 Y:\Documents\OTTD graphics\HEQS_build\Full HEQS\sprites\medium_trailers/end_dump_trailer_med_grain.pcx 34 15 01 24 12 -3 -10
  108 Y:\Documents\OTTD graphics\HEQS_build\Full HEQS\sprites\medium_trailers/end_dump_trailer_med_grain.pcx 66 15 09 20 26 -11 -9
  109 Y:\Documents\OTTD graphics\HEQS_build\Full HEQS\sprites\medium_trailers/end_dump_trailer_med_grain.pcx 98 15 01 16 36 -14 -6
  110 Y:\Documents\OTTD graphics\HEQS_build\Full HEQS\sprites\medium_trailers/end_dump_trailer_med_grain.pcx 146 15 09 20 26 -9 -7
  111 Y:\Documents\OTTD graphics\HEQS_build\Full HEQS\sprites\medium_trailers/end_dump_trailer_med_grain.pcx 178 15 01 24 12 -9 -16
  112 Y:\Documents\OTTD graphics\HEQS_build\Full HEQS\sprites\medium_trailers/end_dump_trailer_med_grain.pcx 210 15 09 20 26 -17 -7
  113 Y:\Documents\OTTD graphics\HEQS_build\Full HEQS\sprites\medium_trailers/end_dump_trailer_med_grain.pcx 242 15 01 16 36 -14 -6
  114 Y:\Documents\OTTD graphics\HEQS_build\Full HEQS\sprites\medium_trailers/end_dump_trailer_med_grain.pcx 290 15 09 20 26 -13 -10

  // Medium end dump - clay, loading
  115 Y:\Documents\OTTD graphics\HEQS_build\Full HEQS\sprites\medium_trailers/end_dump_trailer_med_brown.pcx 34 15 01 24 12 -3 -10
  116 Y:\Documents\OTTD graphics\HEQS_build\Full HEQS\sprites\medium_trailers/end_dump_trailer_med_brown.pcx 66 15 09 20 26 -11 -9
  117 Y:\Documents\OTTD graphics\HEQS_build\Full HEQS\sprites\medium_trailers/end_dump_trailer_med_brown.pcx 98 15 01 16 36 -14 -6
  118 Y:\Documents\OTTD graphics\HEQS_build\Full HEQS\sprites\medium_trailers/end_dump_trailer_med_brown.pcx 146 15 09 20 26 -9 -7
  119 Y:\Documents\OTTD graphics\HEQS_build\Full HEQS\sprites\medium_trailers/end_dump_trailer_med_brown.pcx 178 15 01 24 12 -9 -16
  120 Y:\Documents\OTTD graphics\HEQS_build\Full HEQS\sprites\medium_trailers/end_dump_trailer_med_brown.pcx 210 15 09 20 26 -17 -7
  121 Y:\Documents\OTTD graphics\HEQS_build\Full HEQS\sprites\medium_trailers/end_dump_trailer_med_brown.pcx 242 15 01 16 36 -14 -6
  122 Y:\Documents\OTTD graphics\HEQS_build\Full HEQS\sprites\medium_trailers/end_dump_trailer_med_brown.pcx 290 15 09 20 26 -13 -10
  // Medium end dump - clay, loaded
  123 Y:\Documents\OTTD graphics\HEQS_build\Full HEQS\sprites\medium_trailers/end_dump_trailer_med_brown.pcx 34 15 01 24 12 -3 -10
  124 Y:\Documents\OTTD graphics\HEQS_build\Full HEQS\sprites\medium_trailers/end_dump_trailer_med_brown.pcx 66 15 09 20 26 -11 -9
  125 Y:\Documents\OTTD graphics\HEQS_build\Full HEQS\sprites\medium_trailers/end_dump_trailer_med_brown.pcx 98 15 01 16 36 -14 -6
  126 Y:\Documents\OTTD graphics\HEQS_build\Full HEQS\sprites\medium_trailers/end_dump_trailer_med_brown.pcx 146 15 09 20 26 -9 -7
  127 Y:\Documents\OTTD graphics\HEQS_build\Full HEQS\sprites\medium_trailers/end_dump_trailer_med_brown.pcx 178 15 01 24 12 -9 -16
  128 Y:\Documents\OTTD graphics\HEQS_build\Full HEQS\sprites\medium_trailers/end_dump_trailer_med_brown.pcx 210 15 09 20 26 -17 -7
  129 Y:\Documents\OTTD graphics\HEQS_build\Full HEQS\sprites\medium_trailers/end_dump_trailer_med_brown.pcx 242 15 01 16 36 -14 -6
  130 Y:\Documents\OTTD graphics\HEQS_build\Full HEQS\sprites\medium_trailers/end_dump_trailer_med_brown.pcx 290 15 09 20 26 -13 -10

  // Medium end dump - copper ore, loading
  131 Y:\Documents\OTTD graphics\HEQS_build\Full HEQS\sprites\medium_trailers/end_dump_trailer_med_red.pcx 34 15 01 24 12 -3 -10
  132 Y:\Documents\OTTD graphics\HEQS_build\Full HEQS\sprites\medium_trailers/end_dump_trailer_med_red.pcx 66 15 09 20 26 -11 -9
  133 Y:\Documents\OTTD graphics\HEQS_build\Full HEQS\sprites\medium_trailers/end_dump_trailer_med_red.pcx 98 15 01 16 36 -14 -6
  134 Y:\Documents\OTTD graphics\HEQS_build\Full HEQS\sprites\medium_trailers/end_dump_trailer_med_red.pcx 146 15 09 20 26 -9 -7
  135 Y:\Documents\OTTD graphics\HEQS_build\Full HEQS\sprites\medium_trailers/end_dump_trailer_med_red.pcx 178 15 01 24 12 -9 -16
  136 Y:\Documents\OTTD graphics\HEQS_build\Full HEQS\sprites\medium_trailers/end_dump_trailer_med_red.pcx 210 15 09 20 26 -17 -7
  137 Y:\Documents\OTTD graphics\HEQS_build\Full HEQS\sprites\medium_trailers/end_dump_trailer_med_red.pcx 242 15 01 16 36 -14 -6
  138 Y:\Documents\OTTD graphics\HEQS_build\Full HEQS\sprites\medium_trailers/end_dump_trailer_med_red.pcx 290 15 09 20 26 -13 -10
  // Medium end dump - copper ore, loaded
  139 Y:\Documents\OTTD graphics\HEQS_build\Full HEQS\sprites\medium_trailers/end_dump_trailer_med_red.pcx 34 15 01 24 12 -3 -10
  140 Y:\Documents\OTTD graphics\HEQS_build\Full HEQS\sprites\medium_trailers/end_dump_trailer_med_red.pcx 66 15 09 20 26 -11 -9
  141 Y:\Documents\OTTD graphics\HEQS_build\Full HEQS\sprites\medium_trailers/end_dump_trailer_med_red.pcx 98 15 01 16 36 -14 -6
  142 Y:\Documents\OTTD graphics\HEQS_build\Full HEQS\sprites\medium_trailers/end_dump_trailer_med_red.pcx 146 15 09 20 26 -9 -7
  143 Y:\Documents\OTTD graphics\HEQS_build\Full HEQS\sprites\medium_trailers/end_dump_trailer_med_red.pcx 178 15 01 24 12 -9 -16
  144 Y:\Documents\OTTD graphics\HEQS_build\Full HEQS\sprites\medium_trailers/end_dump_trailer_med_red.pcx 210 15 09 20 26 -17 -7
  145 Y:\Documents\OTTD graphics\HEQS_build\Full HEQS\sprites\medium_trailers/end_dump_trailer_med_red.pcx 242 15 01 16 36 -14 -6
  146 Y:\Documents\OTTD graphics\HEQS_build\Full HEQS\sprites\medium_trailers/end_dump_trailer_med_red.pcx 290 15 09 20 26 -13 -10

  // Medium end dump - sugar, loading
  147 Y:\Documents\OTTD graphics\HEQS_build\Full HEQS\sprites\medium_trailers/end_dump_trailer_med_white.pcx 34 15 01 24 12 -3 -10
  148 Y:\Documents\OTTD graphics\HEQS_build\Full HEQS\sprites\medium_trailers/end_dump_trailer_med_white.pcx 66 15 09 20 26 -11 -9
  149 Y:\Documents\OTTD graphics\HEQS_build\Full HEQS\sprites\medium_trailers/end_dump_trailer_med_white.pcx 98 15 01 16 36 -14 -6
  150 Y:\Documents\OTTD graphics\HEQS_build\Full HEQS\sprites\medium_trailers/end_dump_trailer_med_white.pcx 146 15 09 20 26 -9 -7
  151 Y:\Documents\OTTD graphics\HEQS_build\Full HEQS\sprites\medium_trailers/end_dump_trailer_med_white.pcx 178 15 01 24 12 -9 -16
  152 Y:\Documents\OTTD graphics\HEQS_build\Full HEQS\sprites\medium_trailers/end_dump_trailer_med_white.pcx 210 15 09 20 26 -17 -7
  153 Y:\Documents\OTTD graphics\HEQS_build\Full HEQS\sprites\medium_trailers/end_dump_trailer_med_white.pcx 242 15 01 16 36 -14 -6
  154 Y:\Documents\OTTD graphics\HEQS_build\Full HEQS\sprites\medium_trailers/end_dump_trailer_med_white.pcx 290 15 09 20 26 -13 -10
  // Medium end dump - sugar, loaded
  155 Y:\Documents\OTTD graphics\HEQS_build\Full HEQS\sprites\medium_trailers/end_dump_trailer_med_white.pcx 34 15 01 24 12 -3 -10
  156 Y:\Documents\OTTD graphics\HEQS_build\Full HEQS\sprites\medium_trailers/end_dump_trailer_med_white.pcx 66 15 09 20 26 -11 -9
  157 Y:\Documents\OTTD graphics\HEQS_build\Full HEQS\sprites\medium_trailers/end_dump_trailer_med_white.pcx 98 15 01 16 36 -14 -6
  158 Y:\Documents\OTTD graphics\HEQS_build\Full HEQS\sprites\medium_trailers/end_dump_trailer_med_white.pcx 146 15 09 20 26 -9 -7
  159 Y:\Documents\OTTD graphics\HEQS_build\Full HEQS\sprites\medium_trailers/end_dump_trailer_med_white.pcx 178 15 01 24 12 -9 -16
  160 Y:\Documents\OTTD graphics\HEQS_build\Full HEQS\sprites\medium_trailers/end_dump_trailer_med_white.pcx 210 15 09 20 26 -17 -7
  161 Y:\Documents\OTTD graphics\HEQS_build\Full HEQS\sprites\medium_trailers/end_dump_trailer_med_white.pcx 242 15 01 16 36 -14 -6
  162 Y:\Documents\OTTD graphics\HEQS_build\Full HEQS\sprites\medium_trailers/end_dump_trailer_med_white.pcx 290 15 09 20 26 -13 -10

  // Medium end dump - gravel, loading
  163 Y:\Documents\OTTD graphics\HEQS_build\Full HEQS\sprites\medium_trailers/end_dump_trailer_med_grey.pcx 34 15 01 24 12 -3 -10
  164 Y:\Documents\OTTD graphics\HEQS_build\Full HEQS\sprites\medium_trailers/end_dump_trailer_med_grey.pcx 66 15 09 20 26 -11 -9
  165 Y:\Documents\OTTD graphics\HEQS_build\Full HEQS\sprites\medium_trailers/end_dump_trailer_med_grey.pcx 98 15 01 16 36 -14 -6
  166 Y:\Documents\OTTD graphics\HEQS_build\Full HEQS\sprites\medium_trailers/end_dump_trailer_med_grey.pcx 146 15 09 20 26 -9 -7
  167 Y:\Documents\OTTD graphics\HEQS_build\Full HEQS\sprites\medium_trailers/end_dump_trailer_med_grey.pcx 178 15 01 24 12 -9 -16
  168 Y:\Documents\OTTD graphics\HEQS_build\Full HEQS\sprites\medium_trailers/end_dump_trailer_med_grey.pcx 210 15 09 20 26 -17 -7
  169 Y:\Documents\OTTD graphics\HEQS_build\Full HEQS\sprites\medium_trailers/end_dump_trailer_med_grey.pcx 242 15 01 16 36 -14 -6
  170 Y:\Documents\OTTD graphics\HEQS_build\Full HEQS\sprites\medium_trailers/end_dump_trailer_med_grey.pcx 290 15 09 20 26 -13 -10
  // Medium end dump - gravel, loaded
  171 Y:\Documents\OTTD graphics\HEQS_build\Full HEQS\sprites\medium_trailers/end_dump_trailer_med_grey.pcx 34 15 01 24 12 -3 -10
  172 Y:\Documents\OTTD graphics\HEQS_build\Full HEQS\sprites\medium_trailers/end_dump_trailer_med_grey.pcx 66 15 09 20 26 -11 -9
  173 Y:\Documents\OTTD graphics\HEQS_build\Full HEQS\sprites\medium_trailers/end_dump_trailer_med_grey.pcx 98 15 01 16 36 -14 -6
  174 Y:\Documents\OTTD graphics\HEQS_build\Full HEQS\sprites\medium_trailers/end_dump_trailer_med_grey.pcx 146 15 09 20 26 -9 -7
  175 Y:\Documents\OTTD graphics\HEQS_build\Full HEQS\sprites\medium_trailers/end_dump_trailer_med_grey.pcx 178 15 01 24 12 -9 -16
  176 Y:\Documents\OTTD graphics\HEQS_build\Full HEQS\sprites\medium_trailers/end_dump_trailer_med_grey.pcx 210 15 09 20 26 -17 -7
  177 Y:\Documents\OTTD graphics\HEQS_build\Full HEQS\sprites\medium_trailers/end_dump_trailer_med_grey.pcx 242 15 01 16 36 -14 -6
  178 Y:\Documents\OTTD graphics\HEQS_build\Full HEQS\sprites\medium_trailers/end_dump_trailer_med_grey.pcx 290 15 09 20 26 -13 -10

  // Medium end dump - ??, loading
  179 Y:\Documents\OTTD graphics\HEQS_build\Full HEQS\sprites\medium_trailers/end_dump_trailer_med.pcx 34 15 01 24 12 -3 -10
  180 Y:\Documents\OTTD graphics\HEQS_build\Full HEQS\sprites\medium_trailers/end_dump_trailer_med.pcx 66 15 09 20 26 -11 -9
  181 Y:\Documents\OTTD graphics\HEQS_build\Full HEQS\sprites\medium_trailers/end_dump_trailer_med.pcx 98 15 01 16 36 -14 -6
  182 Y:\Documents\OTTD graphics\HEQS_build\Full HEQS\sprites\medium_trailers/end_dump_trailer_med.pcx 146 15 09 20 26 -9 -7
  183 Y:\Documents\OTTD graphics\HEQS_build\Full HEQS\sprites\medium_trailers/end_dump_trailer_med.pcx 178 15 01 24 12 -9 -16
  184 Y:\Documents\OTTD graphics\HEQS_build\Full HEQS\sprites\medium_trailers/end_dump_trailer_med.pcx 210 15 09 20 26 -17 -7
  185 Y:\Documents\OTTD graphics\HEQS_build\Full HEQS\sprites\medium_trailers/end_dump_trailer_med.pcx 242 15 01 16 36 -14 -6
  186 Y:\Documents\OTTD graphics\HEQS_build\Full HEQS\sprites\medium_trailers/end_dump_trailer_med.pcx 290 15 09 20 26 -13 -10
  // Medium end dump - ??, loaded
  187 Y:\Documents\OTTD graphics\HEQS_build\Full HEQS\sprites\medium_trailers/end_dump_trailer_med.pcx 34 15 01 24 12 -3 -10
  188 Y:\Documents\OTTD graphics\HEQS_build\Full HEQS\sprites\medium_trailers/end_dump_trailer_med.pcx 66 15 09 20 26 -11 -9
  189 Y:\Documents\OTTD graphics\HEQS_build\Full HEQS\sprites\medium_trailers/end_dump_trailer_med.pcx 98 15 01 16 36 -14 -6
  190 Y:\Documents\OTTD graphics\HEQS_build\Full HEQS\sprites\medium_trailers/end_dump_trailer_med.pcx 146 15 09 20 26 -9 -7
  191 Y:\Documents\OTTD graphics\HEQS_build\Full HEQS\sprites\medium_trailers/end_dump_trailer_med.pcx 178 15 01 24 12 -9 -16
  192 Y:\Documents\OTTD graphics\HEQS_build\Full HEQS\sprites\medium_trailers/end_dump_trailer_med.pcx 210 15 09 20 26 -17 -7
  193 Y:\Documents\OTTD graphics\HEQS_build\Full HEQS\sprites\medium_trailers/end_dump_trailer_med.pcx 242 15 01 16 36 -14 -6
  194 Y:\Documents\OTTD graphics\HEQS_build\Full HEQS\sprites\medium_trailers/end_dump_trailer_med.pcx 290 15 09 20 26 -13 -10
  195 * 17	 02 01 08 03 03 00 00 01 00 02 00 00 00 01 00 02 00
  196 * 17	 02 01 01 03 03 00 00 03 00 04 00 00 00 03 00 04 00
  197 * 17	 02 01 06 03 03 00 00 05 00 06 00 00 00 05 00 06 00
  198 * 17	 02 01 0E 03 03 00 00 07 00 08 00 00 00 07 00 08 00
  199 * 17	 02 01 17 03 03 00 00 09 00 0A 00 00 00 09 00 0A 00
  200 * 17	 02 01 11 03 03 00 00 0B 00 0C 00 00 00 0B 00 0C 00
  201 * 17	 02 01 FF 03 03 00 00 0D 00 0E 00 00 00 0D 00 0E 00
  202 * 17	 02 01 15 03 03 00 00 0F 00 10 00 00 00 0F 00 10 00

  // Medium flat trailer / (also stake trailer ??)
  203 * 4	 01 01 12 08
  // Medium flat trailer - empty
  204 Y:\Documents\OTTD graphics\HEQS_build\Full HEQS\sprites\medium_trailers/flat_trailer_med.pcx 34 15 01 24 12 -3 -10
  205 Y:\Documents\OTTD graphics\HEQS_build\Full HEQS\sprites\medium_trailers/flat_trailer_med.pcx 66 15 09 20 26 -11 -9
  206 Y:\Documents\OTTD graphics\HEQS_build\Full HEQS\sprites\medium_trailers/flat_trailer_med.pcx 98 15 01 16 36 -14 -6
  207 Y:\Documents\OTTD graphics\HEQS_build\Full HEQS\sprites\medium_trailers/flat_trailer_med.pcx 146 15 09 20 26 -9 -7
  208 Y:\Documents\OTTD graphics\HEQS_build\Full HEQS\sprites\medium_trailers/flat_trailer_med.pcx 178 15 01 24 12 -9 -16
  209 Y:\Documents\OTTD graphics\HEQS_build\Full HEQS\sprites\medium_trailers/flat_trailer_med.pcx 210 15 09 20 26 -17 -7
  210 Y:\Documents\OTTD graphics\HEQS_build\Full HEQS\sprites\medium_trailers/flat_trailer_med.pcx 242 15 01 16 36 -14 -6
  211 Y:\Documents\OTTD graphics\HEQS_build\Full HEQS\sprites\medium_trailers/flat_trailer_med.pcx 290 15 09 20 26 -13 -10

  // Medium flat trailer - steel, loading  
  212 Y:\Documents\OTTD graphics\HEQS_build\Full HEQS\sprites\medium_trailers/flat_trailer_med_steel.pcx 34 15 01 24 12 -3 -10
  213 Y:\Documents\OTTD graphics\HEQS_build\Full HEQS\sprites\medium_trailers/flat_trailer_med_steel.pcx 66 15 09 20 26 -11 -9
  214 Y:\Documents\OTTD graphics\HEQS_build\Full HEQS\sprites\medium_trailers/flat_trailer_med_steel.pcx 98 15 01 16 36 -14 -6
  215 Y:\Documents\OTTD graphics\HEQS_build\Full HEQS\sprites\medium_trailers/flat_trailer_med_steel.pcx 146 15 09 20 26 -9 -7
  216 Y:\Documents\OTTD graphics\HEQS_build\Full HEQS\sprites\medium_trailers/flat_trailer_med_steel.pcx 178 15 01 24 12 -9 -16
  217 Y:\Documents\OTTD graphics\HEQS_build\Full HEQS\sprites\medium_trailers/flat_trailer_med_steel.pcx 210 15 09 20 26 -17 -7
  218 Y:\Documents\OTTD graphics\HEQS_build\Full HEQS\sprites\medium_trailers/flat_trailer_med_steel.pcx 242 15 01 16 36 -14 -6
  219 Y:\Documents\OTTD graphics\HEQS_build\Full HEQS\sprites\medium_trailers/flat_trailer_med_steel.pcx 290 15 09 20 26 -13 -10

  // Medium flat trailer - steel, loaded  
  220 Y:\Documents\OTTD graphics\HEQS_build\Full HEQS\sprites\medium_trailers/flat_trailer_med_steel.pcx 34 15 01 24 12 -3 -10
  221 Y:\Documents\OTTD graphics\HEQS_build\Full HEQS\sprites\medium_trailers/flat_trailer_med_steel.pcx 66 15 09 20 26 -11 -9
  222 Y:\Documents\OTTD graphics\HEQS_build\Full HEQS\sprites\medium_trailers/flat_trailer_med_steel.pcx 98 15 01 16 36 -14 -6
  223 Y:\Documents\OTTD graphics\HEQS_build\Full HEQS\sprites\medium_trailers/flat_trailer_med_steel.pcx 146 15 09 20 26 -9 -7
  224 Y:\Documents\OTTD graphics\HEQS_build\Full HEQS\sprites\medium_trailers/flat_trailer_med_steel.pcx 178 15 01 24 12 -9 -16
  225 Y:\Documents\OTTD graphics\HEQS_build\Full HEQS\sprites\medium_trailers/flat_trailer_med_steel.pcx 210 15 09 20 26 -17 -7
  226 Y:\Documents\OTTD graphics\HEQS_build\Full HEQS\sprites\medium_trailers/flat_trailer_med_steel.pcx 242 15 01 16 36 -14 -6
  227 Y:\Documents\OTTD graphics\HEQS_build\Full HEQS\sprites\medium_trailers/flat_trailer_med_steel.pcx 290 15 09 20 26 -13 -10

  // Medium flat trailer - paper, loading  
  228 Y:\Documents\OTTD graphics\HEQS_build\Full HEQS\sprites\medium_trailers/flat_trailer_med_paper.pcx 34 15 01 24 12 -3 -10
  229 Y:\Documents\OTTD graphics\HEQS_build\Full HEQS\sprites\medium_trailers/flat_trailer_med_paper.pcx 66 15 09 20 26 -11 -9
  230 Y:\Documents\OTTD graphics\HEQS_build\Full HEQS\sprites\medium_trailers/flat_trailer_med_paper.pcx 98 15 01 16 36 -14 -6
  231 Y:\Documents\OTTD graphics\HEQS_build\Full HEQS\sprites\medium_trailers/flat_trailer_med_paper.pcx 146 15 09 20 26 -9 -7
  232 Y:\Documents\OTTD graphics\HEQS_build\Full HEQS\sprites\medium_trailers/flat_trailer_med_paper.pcx 178 15 01 24 12 -9 -16
  233 Y:\Documents\OTTD graphics\HEQS_build\Full HEQS\sprites\medium_trailers/flat_trailer_med_paper.pcx 210 15 09 20 26 -17 -7
  234 Y:\Documents\OTTD graphics\HEQS_build\Full HEQS\sprites\medium_trailers/flat_trailer_med_paper.pcx 242 15 01 16 36 -14 -6
  235 Y:\Documents\OTTD graphics\HEQS_build\Full HEQS\sprites\medium_trailers/flat_trailer_med_paper.pcx 290 15 09 20 26 -13 -10

  // Medium flat trailer - paper, loaded  
  236 Y:\Documents\OTTD graphics\HEQS_build\Full HEQS\sprites\medium_trailers/flat_trailer_med_paper.pcx 34 15 01 24 12 -3 -10
  237 Y:\Documents\OTTD graphics\HEQS_build\Full HEQS\sprites\medium_trailers/flat_trailer_med_paper.pcx 66 15 09 20 26 -11 -9
  238 Y:\Documents\OTTD graphics\HEQS_build\Full HEQS\sprites\medium_trailers/flat_trailer_med_paper.pcx 98 15 01 16 36 -14 -6
  239 Y:\Documents\OTTD graphics\HEQS_build\Full HEQS\sprites\medium_trailers/flat_trailer_med_paper.pcx 146 15 09 20 26 -9 -7
  240 Y:\Documents\OTTD graphics\HEQS_build\Full HEQS\sprites\medium_trailers/flat_trailer_med_paper.pcx 178 15 01 24 12 -9 -16
  241 Y:\Documents\OTTD graphics\HEQS_build\Full HEQS\sprites\medium_trailers/flat_trailer_med_paper.pcx 210 15 09 20 26 -17 -7
  242 Y:\Documents\OTTD graphics\HEQS_build\Full HEQS\sprites\medium_trailers/flat_trailer_med_paper.pcx 242 15 01 16 36 -14 -6
  243 Y:\Documents\OTTD graphics\HEQS_build\Full HEQS\sprites\medium_trailers/flat_trailer_med.pcx 290 15 09 20 26 -13 -10

  // Medium stake trailer - empty
  244 Y:\Documents\OTTD graphics\HEQS_build\Full HEQS\sprites\medium_trailers/stake_trailer_med.pcx 34 15 01 24 12 -3 -10
  245 Y:\Documents\OTTD graphics\HEQS_build\Full HEQS\sprites\medium_trailers/stake_trailer_med.pcx 66 15 09 20 26 -11 -9
  246 Y:\Documents\OTTD graphics\HEQS_build\Full HEQS\sprites\medium_trailers/stake_trailer_med.pcx 98 15 01 16 36 -14 -6
  247 Y:\Documents\OTTD graphics\HEQS_build\Full HEQS\sprites\medium_trailers/stake_trailer_med.pcx 146 15 09 20 26 -9 -7
  248 Y:\Documents\OTTD graphics\HEQS_build\Full HEQS\sprites\medium_trailers/stake_trailer_med.pcx 178 15 01 24 12 -9 -16
  249 Y:\Documents\OTTD graphics\HEQS_build\Full HEQS\sprites\medium_trailers/stake_trailer_med.pcx 210 15 09 20 26 -17 -7
  250 Y:\Documents\OTTD graphics\HEQS_build\Full HEQS\sprites\medium_trailers/stake_trailer_med.pcx 242 15 01 16 36 -14 -6
  251 Y:\Documents\OTTD graphics\HEQS_build\Full HEQS\sprites\medium_trailers/stake_trailer_med.pcx 290 15 09 20 26 -13 -10

  // Medium stake trailer - wood, loading  
  252 Y:\Documents\OTTD graphics\HEQS_build\Full HEQS\sprites\medium_trailers/stake_trailer_med_logs.pcx 34 15 01 24 12 -3 -10
  253 Y:\Documents\OTTD graphics\HEQS_build\Full HEQS\sprites\medium_trailers/stake_trailer_med_logs.pcx 66 15 09 20 26 -11 -9
  254 Y:\Documents\OTTD graphics\HEQS_build\Full HEQS\sprites\medium_trailers/stake_trailer_med_logs.pcx 98 15 01 16 36 -14 -6
  255 Y:\Documents\OTTD graphics\HEQS_build\Full HEQS\sprites\medium_trailers/stake_trailer_med_logs.pcx 146 15 09 20 26 -9 -7
  256 Y:\Documents\OTTD graphics\HEQS_build\Full HEQS\sprites\medium_trailers/stake_trailer_med_logs.pcx 178 15 01 24 12 -9 -16
  257 Y:\Documents\OTTD graphics\HEQS_build\Full HEQS\sprites\medium_trailers/stake_trailer_med_logs.pcx 210 15 09 20 26 -17 -7
  258 Y:\Documents\OTTD graphics\HEQS_build\Full HEQS\sprites\medium_trailers/stake_trailer_med_logs.pcx 242 15 01 16 36 -14 -6
  259 Y:\Documents\OTTD graphics\HEQS_build\Full HEQS\sprites\medium_trailers/stake_trailer_med_logs.pcx 290 15 09 20 26 -13 -10

  // Medium stake trailer - wood, loaded  
  260 Y:\Documents\OTTD graphics\HEQS_build\Full HEQS\sprites\medium_trailers/stake_trailer_med_logs.pcx 34 15 01 24 12 -3 -10
  261 Y:\Documents\OTTD graphics\HEQS_build\Full HEQS\sprites\medium_trailers/stake_trailer_med_logs.pcx 66 15 09 20 26 -11 -9
  262 Y:\Documents\OTTD graphics\HEQS_build\Full HEQS\sprites\medium_trailers/stake_trailer_med_logs.pcx 98 15 01 16 36 -14 -6
  263 Y:\Documents\OTTD graphics\HEQS_build\Full HEQS\sprites\medium_trailers/stake_trailer_med_logs.pcx 146 15 09 20 26 -9 -7
  264 Y:\Documents\OTTD graphics\HEQS_build\Full HEQS\sprites\medium_trailers/stake_trailer_med_logs.pcx 178 15 01 24 12 -9 -16
  265 Y:\Documents\OTTD graphics\HEQS_build\Full HEQS\sprites\medium_trailers/stake_trailer_med_logs.pcx 210 15 09 20 26 -17 -7
  266 Y:\Documents\OTTD graphics\HEQS_build\Full HEQS\sprites\medium_trailers/stake_trailer_med_logs.pcx 242 15 01 16 36 -14 -6
  267 Y:\Documents\OTTD graphics\HEQS_build\Full HEQS\sprites\medium_trailers/stake_trailer_med_logs.pcx 290 15 09 20 26 -13 -10

 // Medium flat trailer - livestock, loading  
  268 Y:\Documents\OTTD graphics\HEQS_build\Full HEQS\sprites\medium_trailers/flat_trailer_med_livestock.pcx 34 15 01 24 12 -3 -10
  269 Y:\Documents\OTTD graphics\HEQS_build\Full HEQS\sprites\medium_trailers/flat_trailer_med_livestock.pcx 66 15 09 20 26 -11 -9
  270 Y:\Documents\OTTD graphics\HEQS_build\Full HEQS\sprites\medium_trailers/flat_trailer_med_livestock.pcx 98 15 01 16 36 -14 -6
  271 Y:\Documents\OTTD graphics\HEQS_build\Full HEQS\sprites\medium_trailers/flat_trailer_med_livestock.pcx 146 15 09 20 26 -9 -7
  272 Y:\Documents\OTTD graphics\HEQS_build\Full HEQS\sprites\medium_trailers/flat_trailer_med_livestock.pcx 178 15 01 24 12 -9 -16
  273 Y:\Documents\OTTD graphics\HEQS_build\Full HEQS\sprites\medium_trailers/flat_trailer_med_livestock.pcx 210 15 09 20 26 -17 -7
  274 Y:\Documents\OTTD graphics\HEQS_build\Full HEQS\sprites\medium_trailers/flat_trailer_med_livestock.pcx 242 15 01 16 36 -14 -6
  275 Y:\Documents\OTTD graphics\HEQS_build\Full HEQS\sprites\medium_trailers/flat_trailer_med_livestock.pcx 290 15 09 20 26 -13 -10

 // Medium flat trailer - livestock, loaded
  276 Y:\Documents\OTTD graphics\HEQS_build\Full HEQS\sprites\medium_trailers/flat_trailer_med_livestock.pcx 34 15 01 24 12 -3 -10
  277 Y:\Documents\OTTD graphics\HEQS_build\Full HEQS\sprites\medium_trailers/flat_trailer_med_livestock.pcx 66 15 09 20 26 -11 -9
  278 Y:\Documents\OTTD graphics\HEQS_build\Full HEQS\sprites\medium_trailers/flat_trailer_med_livestock.pcx 98 15 01 16 36 -14 -6
  279 Y:\Documents\OTTD graphics\HEQS_build\Full HEQS\sprites\medium_trailers/flat_trailer_med_livestock.pcx 146 15 09 20 26 -9 -7
  280 Y:\Documents\OTTD graphics\HEQS_build\Full HEQS\sprites\medium_trailers/flat_trailer_med_livestock.pcx 178 15 01 24 12 -9 -16
  281 Y:\Documents\OTTD graphics\HEQS_build\Full HEQS\sprites\medium_trailers/flat_trailer_med_livestock.pcx 210 15 09 20 26 -17 -7
  282 Y:\Documents\OTTD graphics\HEQS_build\Full HEQS\sprites\medium_trailers/flat_trailer_med_livestock.pcx 242 15 01 16 36 -14 -6
  283 Y:\Documents\OTTD graphics\HEQS_build\Full HEQS\sprites\medium_trailers/flat_trailer_med_livestock.pcx 290 15 09 20 26 -13 -10

 // Medium flat trailer - ??, loading  
  284 Y:\Documents\OTTD graphics\HEQS_build\Full HEQS\sprites\medium_trailers/flat_trailer_med.pcx 34 15 01 24 12 -3 -10
  285 Y:\Documents\OTTD graphics\HEQS_build\Full HEQS\sprites\medium_trailers/flat_trailer_med.pcx 66 15 09 20 26 -11 -9
  286 Y:\Documents\OTTD graphics\HEQS_build\Full HEQS\sprites\medium_trailers/flat_trailer_med.pcx 98 15 01 16 36 -14 -6
  287 Y:\Documents\OTTD graphics\HEQS_build\Full HEQS\sprites\medium_trailers/flat_trailer_med.pcx 146 15 09 20 26 -9 -7
  288 Y:\Documents\OTTD graphics\HEQS_build\Full HEQS\sprites\medium_trailers/flat_trailer_med.pcx 178 15 01 24 12 -9 -16
  289 Y:\Documents\OTTD graphics\HEQS_build\Full HEQS\sprites\medium_trailers/flat_trailer_med.pcx 210 15 09 20 26 -17 -7
  290 Y:\Documents\OTTD graphics\HEQS_build\Full HEQS\sprites\medium_trailers/flat_trailer_med.pcx 242 15 01 16 36 -14 -6
  291 Y:\Documents\OTTD graphics\HEQS_build\Full HEQS\sprites\medium_trailers/flat_trailer_med.pcx 290 15 09 20 26 -13 -10

 // Medium flat trailer - ??, loaded  
  292 Y:\Documents\OTTD graphics\HEQS_build\Full HEQS\sprites\medium_trailers/flat_trailer_med.pcx 34 15 01 24 12 -3 -10
  293 Y:\Documents\OTTD graphics\HEQS_build\Full HEQS\sprites\medium_trailers/flat_trailer_med.pcx 66 15 09 20 26 -11 -9
  294 Y:\Documents\OTTD graphics\HEQS_build\Full HEQS\sprites\medium_trailers/flat_trailer_med.pcx 98 15 01 16 36 -14 -6
  295 Y:\Documents\OTTD graphics\HEQS_build\Full HEQS\sprites\medium_trailers/flat_trailer_med.pcx 146 15 09 20 26 -9 -7
  296 Y:\Documents\OTTD graphics\HEQS_build\Full HEQS\sprites\medium_trailers/flat_trailer_med.pcx 178 15 01 24 12 -9 -16
  297 Y:\Documents\OTTD graphics\HEQS_build\Full HEQS\sprites\medium_trailers/flat_trailer_med.pcx 210 15 09 20 26 -17 -7
  298 Y:\Documents\OTTD graphics\HEQS_build\Full HEQS\sprites\medium_trailers/flat_trailer_med.pcx 242 15 01 16 36 -14 -6
  299 Y:\Documents\OTTD graphics\HEQS_build\Full HEQS\sprites\medium_trailers/flat_trailer_med.pcx 290 15 09 20 26 -13 -10

 // Medium flat trailer(s) - various toyland crap  
  300 Y:\Documents\OTTD graphics\HEQS_build\Full HEQS\sprites/heqs2.pcx 338 360 01 18 8 -3 -10
  301 Y:\Documents\OTTD graphics\HEQS_build\Full HEQS\sprites/heqs2.pcx 354 360 09 16 20 -14 -7
  302 Y:\Documents\OTTD graphics\HEQS_build\Full HEQS\sprites/heqs2.pcx 386 360 01 12 28 -14 -6
  303 Y:\Documents\OTTD graphics\HEQS_build\Full HEQS\sprites/heqs2.pcx 434 360 09 16 20 -6 -8
  304 Y:\Documents\OTTD graphics\HEQS_build\Full HEQS\sprites/heqs2.pcx 466 360 01 18 8 -3 -10
  305 Y:\Documents\OTTD graphics\HEQS_build\Full HEQS\sprites/heqs2.pcx 482 360 09 16 20 -14 -8
  306 Y:\Documents\OTTD graphics\HEQS_build\Full HEQS\sprites/heqs2.pcx 514 360 01 12 28 -14 -6
  307 Y:\Documents\OTTD graphics\HEQS_build\Full HEQS\sprites/heqs2.pcx 562 360 09 16 20 -6 -7
  308 Y:\Documents\OTTD graphics\HEQS_build\Full HEQS\sprites/heqs2.pcx 594 360 01 18 8 -3 -10
  309 Y:\Documents\OTTD graphics\HEQS_build\Full HEQS\sprites/heqs2.pcx 610 360 09 16 20 -14 -7
  310 Y:\Documents\OTTD graphics\HEQS_build\Full HEQS\sprites/heqs2.pcx 642 360 01 12 28 -14 -6
  311 Y:\Documents\OTTD graphics\HEQS_build\Full HEQS\sprites/heqs2.pcx 690 360 09 16 20 -6 -8
  312 Y:\Documents\OTTD graphics\HEQS_build\Full HEQS\sprites/heqs2.pcx 722 360 01 18 8 -3 -10
  313 Y:\Documents\OTTD graphics\HEQS_build\Full HEQS\sprites/heqs2.pcx 738 360 09 16 20 -14 -8
  314 Y:\Documents\OTTD graphics\HEQS_build\Full HEQS\sprites/heqs2.pcx 2 392 01 12 28 -14 -6
  315 Y:\Documents\OTTD graphics\HEQS_build\Full HEQS\sprites/heqs2.pcx 50 392 09 16 20 -6 -7
  316 Y:\Documents\OTTD graphics\HEQS_build\Full HEQS\sprites/heqs2.pcx 82 392 01 18 8 -3 -10
  317 Y:\Documents\OTTD graphics\HEQS_build\Full HEQS\sprites/heqs2.pcx 98 392 09 16 20 -14 -7
  318 Y:\Documents\OTTD graphics\HEQS_build\Full HEQS\sprites/heqs2.pcx 130 392 01 12 28 -14 -6
  319 Y:\Documents\OTTD graphics\HEQS_build\Full HEQS\sprites/heqs2.pcx 178 392 09 16 20 -6 -8
  320 Y:\Documents\OTTD graphics\HEQS_build\Full HEQS\sprites/heqs2.pcx 210 392 01 18 8 -3 -10
  321 Y:\Documents\OTTD graphics\HEQS_build\Full HEQS\sprites/heqs2.pcx 226 392 09 16 20 -14 -8
  322 Y:\Documents\OTTD graphics\HEQS_build\Full HEQS\sprites/heqs2.pcx 258 392 01 12 28 -14 -6
  323 Y:\Documents\OTTD graphics\HEQS_build\Full HEQS\sprites/heqs2.pcx 306 392 09 16 20 -6 -7
  324 Y:\Documents\OTTD graphics\HEQS_build\Full HEQS\sprites/heqs2.pcx 338 392 01 18 8 -3 -10
  325 Y:\Documents\OTTD graphics\HEQS_build\Full HEQS\sprites/heqs2.pcx 354 392 09 16 20 -14 -7
  326 Y:\Documents\OTTD graphics\HEQS_build\Full HEQS\sprites/heqs2.pcx 386 392 01 12 28 -14 -6
  327 Y:\Documents\OTTD graphics\HEQS_build\Full HEQS\sprites/heqs2.pcx 434 392 09 16 20 -6 -8
  328 Y:\Documents\OTTD graphics\HEQS_build\Full HEQS\sprites/heqs2.pcx 466 392 01 18 8 -3 -10
  329 Y:\Documents\OTTD graphics\HEQS_build\Full HEQS\sprites/heqs2.pcx 482 392 09 16 20 -14 -8
  330 Y:\Documents\OTTD graphics\HEQS_build\Full HEQS\sprites/heqs2.pcx 514 392 01 12 28 -14 -6
  331 Y:\Documents\OTTD graphics\HEQS_build\Full HEQS\sprites/heqs2.pcx 562 392 09 16 20 -6 -7
  332 Y:\Documents\OTTD graphics\HEQS_build\Full HEQS\sprites/heqs2.pcx 594 392 01 18 8 -3 -10
  333 Y:\Documents\OTTD graphics\HEQS_build\Full HEQS\sprites/heqs2.pcx 610 392 09 16 20 -14 -7
  334 Y:\Documents\OTTD graphics\HEQS_build\Full HEQS\sprites/heqs2.pcx 642 392 01 12 28 -14 -6
  335 Y:\Documents\OTTD graphics\HEQS_build\Full HEQS\sprites/heqs2.pcx 690 392 09 16 20 -6 -8
  336 Y:\Documents\OTTD graphics\HEQS_build\Full HEQS\sprites/heqs2.pcx 722 392 01 18 8 -3 -10
  337 Y:\Documents\OTTD graphics\HEQS_build\Full HEQS\sprites/heqs2.pcx 738 392 09 16 20 -14 -8
  338 Y:\Documents\OTTD graphics\HEQS_build\Full HEQS\sprites/heqs2.pcx 2 424 01 12 28 -14 -6
  339 Y:\Documents\OTTD graphics\HEQS_build\Full HEQS\sprites/heqs2.pcx 50 424 09 16 20 -6 -7
  340 Y:\Documents\OTTD graphics\HEQS_build\Full HEQS\sprites/heqs2.pcx 82 424 01 18 8 -3 -10
  341 Y:\Documents\OTTD graphics\HEQS_build\Full HEQS\sprites/heqs2.pcx 98 424 09 16 20 -14 -7
  342 Y:\Documents\OTTD graphics\HEQS_build\Full HEQS\sprites/heqs2.pcx 130 424 01 12 28 -14 -6
  343 Y:\Documents\OTTD graphics\HEQS_build\Full HEQS\sprites/heqs2.pcx 178 424 09 16 20 -6 -8
  344 Y:\Documents\OTTD graphics\HEQS_build\Full HEQS\sprites/heqs2.pcx 210 424 01 18 8 -3 -10
  345 Y:\Documents\OTTD graphics\HEQS_build\Full HEQS\sprites/heqs2.pcx 226 424 09 16 20 -14 -8
  346 Y:\Documents\OTTD graphics\HEQS_build\Full HEQS\sprites/heqs2.pcx 258 424 01 12 28 -14 -6
  347 Y:\Documents\OTTD graphics\HEQS_build\Full HEQS\sprites/heqs2.pcx 306 424 09 16 20 -6 -7
  348 * 17	 02 01 09 03 03 00 00 01 00 02 00 00 00 01 00 02 00
  349 * 17	 02 01 0B 03 03 00 00 03 00 04 00 00 00 03 00 04 00
  350 * 17	 02 01 07 03 03 05 00 06 00 07 00 05 00 06 00 07 00
  351 * 17	 02 01 04 03 03 00 00 07 00 08 00 00 00 07 00 08 00
  352 * 17	 02 01 18 03 03 00 00 09 00 0A 00 00 00 09 00 0A 00
  353 * 17	 02 01 1A 03 03 00 00 0B 00 0C 00 00 00 0B 00 0C 00
//!!Warning (94): Redefining ID FF not used since previous definition at sprite 201.
  354 * 17	 02 01 FF 03 03 00 00 0D 00 0E 00 00 00 0D 00 0E 00
  355 * 17	 02 01 13 03 03 00 00 0F 00 10 00 00 00 0F 00 10 00

  // Medium tank trailer
//!!Warning (97): Set 11 defined by the previous Action 1 (sprite 203) has not been used.
  356 * 4	 01 01 01 08
  357 Y:\Documents\OTTD graphics\HEQS_build\Full HEQS\sprites\medium_trailers/tank_trailer_med.pcx 34 15 01 24 12 -3 -10
  358 Y:\Documents\OTTD graphics\HEQS_build\Full HEQS\sprites\medium_trailers/tank_trailer_med.pcx 66 15 09 20 26 -11 -9
  359 Y:\Documents\OTTD graphics\HEQS_build\Full HEQS\sprites\medium_trailers/tank_trailer_med.pcx 98 15 01 16 36 -14 -6
  360 Y:\Documents\OTTD graphics\HEQS_build\Full HEQS\sprites\medium_trailers/tank_trailer_med.pcx 146 15 09 20 26 -9 -7
  361 Y:\Documents\OTTD graphics\HEQS_build\Full HEQS\sprites\medium_trailers/tank_trailer_med.pcx 178 15 01 24 12 -9 -16
  362 Y:\Documents\OTTD graphics\HEQS_build\Full HEQS\sprites\medium_trailers/tank_trailer_med.pcx 210 15 09 20 26 -17 -7
  363 Y:\Documents\OTTD graphics\HEQS_build\Full HEQS\sprites\medium_trailers/tank_trailer_med.pcx 242 15 01 16 36 -14 -6
  364 Y:\Documents\OTTD graphics\HEQS_build\Full HEQS\sprites\medium_trailers/tank_trailer_med.pcx 290 15 09 20 26 -13 -10
  365 * 9	 02 01 03 01 01 00 00 00 00
  366 * 4	 01 01 01 08
  367 Y:\Documents\OTTD graphics\HEQS_build\Full HEQS\sprites/heqs2.pcx 770 424 01 18 8 -3 -10
  368 Y:\Documents\OTTD graphics\HEQS_build\Full HEQS\sprites/heqs2.pcx 2 456 09 16 20 -14 -7
  369 Y:\Documents\OTTD graphics\HEQS_build\Full HEQS\sprites/heqs2.pcx 34 456 01 12 28 -14 -6
  370 Y:\Documents\OTTD graphics\HEQS_build\Full HEQS\sprites/heqs2.pcx 82 456 09 16 20 -6 -8
  371 Y:\Documents\OTTD graphics\HEQS_build\Full HEQS\sprites/heqs2.pcx 114 456 01 18 8 -3 -10
  372 Y:\Documents\OTTD graphics\HEQS_build\Full HEQS\sprites/heqs2.pcx 130 456 09 16 20 -14 -8
  373 Y:\Documents\OTTD graphics\HEQS_build\Full HEQS\sprites/heqs2.pcx 162 456 01 12 28 -14 -6
  374 Y:\Documents\OTTD graphics\HEQS_build\Full HEQS\sprites/heqs2.pcx 210 456 09 16 20 -6 -7
  375 * 9	 02 01 0C 01 01 00 00 00 00
//!!Error (62): Offset 6: ID 00 has not been defined.
//!!Error (62): Offset 12: ID 02 has not been defined.
//!!Warning (100): Default ID appears earlier in sprite.
//!!Warning (100): Default ID appears earlier in sprite.
//!!Warning (100): Default ID appears earlier in sprite.
  376 * 103	 03 01 01 00 20 00 00 00 01 01 00 02 02 00 03 03 00 04 04 00 05 05 00 06 06 00 07 07 00 08 08 00
	 09 09 00 0A 0A 00 0B 0B 00 0C 0C 00 0D 0C 00 0E 0E 00 0F 03 00 10 03 00 11 11 00 12 05 00 13 13
	 00 14 05 00 15 15 00 16 03 00 17 17 00 18 18 00 19 03 00 1A 1A 00 1B 06 00 1C 0A 00 1D 06 00 1E
	 07 00 1F 0A 00 05 00

   // ------------ end of Medium Trailers ------------------ //

  // -------------- Belly Dump Trailers --------------- //
   // Small belly dump trailer
  377 * 67	 00 01 19 01 05
    00 00 00
    02 20
    03 11
    04 23
    06 0F
    07 05
    08 80
    09 1E 0A 48 4C 00 00 13 14 14 18 
    0E FF
    0F 00
    10 FF
    11 34
    12 17
    15 20
    16 40 00 00 00
    17 16
    1A 00
    1B 00
    1C 02
    1D 10 00          // Refittable cargo classes
    1E 00 00          // Non-refittable cargo classes
    1F 60 B3 0A 00

  378 * 22	 04 01 7F 01 05 "Small Belly Dump" 00

  // Samll Belly dump empty
  379 * 4	 01 01 01 08 
  380 Y:\Documents\OTTD graphics\HEQS_build\Full HEQS\sprites\belly_dump_trailers/belly_dump_trailer_small.pcx 34 10 01 24 12 -3 -10
  381 Y:\Documents\OTTD graphics\HEQS_build\Full HEQS\sprites\belly_dump_trailers/belly_dump_trailer_small.pcx 66 10 09 20 26 -11 -9
  382 Y:\Documents\OTTD graphics\HEQS_build\Full HEQS\sprites\belly_dump_trailers/belly_dump_trailer_small.pcx 98 10 01 16 36 -14 -6
  383 Y:\Documents\OTTD graphics\HEQS_build\Full HEQS\sprites\belly_dump_trailers/belly_dump_trailer_small.pcx 146 10 09 20 26 -9 -7
  384 Y:\Documents\OTTD graphics\HEQS_build\Full HEQS\sprites\belly_dump_trailers/belly_dump_trailer_small.pcx 178 10 01 24 12 -9 -16
  385 Y:\Documents\OTTD graphics\HEQS_build\Full HEQS\sprites\belly_dump_trailers/belly_dump_trailer_small.pcx 210 10 09 20 26 -17 -7
  386 Y:\Documents\OTTD graphics\HEQS_build\Full HEQS\sprites\belly_dump_trailers/belly_dump_trailer_small.pcx 242 10 01 16 36 -14 -6
  387 Y:\Documents\OTTD graphics\HEQS_build\Full HEQS\sprites\belly_dump_trailers/belly_dump_trailer_small.pcx 290 10 09 20 26 -13 -10
  388 * 9	 02 01 AA //normal action2 defining graphics with no loading/loaded stages 
      01 // number loading states
      01 // number loaded states
      00 00 // loading sprites
      00 00 // loaded sprites
  389 * 7	 03   // Action 3
      01  // RV 
      01  // Number of vehicles this action associate graphics with 
      05   // Vehicle ID
      00  // Number of different cargo types to support  
      AA 00

   // Large belly dump trailer
  390 * 67	 00 01 19 01 06
    00 00 00
    02 20
    03 11
    04 23
    06 0F
    07 05
    08 80
    09 1E 0A 48 4C 00 00 13 14 14 18 
    0E FF
    0F 00
    10 FF
    11 34
    12 17
    15 20
    16 40 00 00 00
    17 16
    1A 00
    1B 00
    1C 02
    1D 10 00          // Refittable cargo classes
    1E 00 00          // Non-refittable cargo classes
    1F 60 B3 0A 00

  391 * 22	 04 01 7F 01 06 "Large Belly Dump" 00

  // Large Belly dump empty
  392 * 4	 01 01 01 08
  393 Y:\Documents\OTTD graphics\HEQS_build\Full HEQS\sprites\belly_dump_trailers/belly_dump_trailer_large.pcx 34 10 01 24 12 -3 -10
  394 Y:\Documents\OTTD graphics\HEQS_build\Full HEQS\sprites\belly_dump_trailers/belly_dump_trailer_large.pcx 66 10 09 20 26 -16 -7
  395 Y:\Documents\OTTD graphics\HEQS_build\Full HEQS\sprites\belly_dump_trailers/belly_dump_trailer_large.pcx 98 10 01 16 36 -14 -6
  396 Y:\Documents\OTTD graphics\HEQS_build\Full HEQS\sprites\belly_dump_trailers/belly_dump_trailer_large.pcx 146 10 09 20 26 -9 -7
  397 Y:\Documents\OTTD graphics\HEQS_build\Full HEQS\sprites\belly_dump_trailers/belly_dump_trailer_large.pcx 178 10 01 24 12 -9 -16
  398 Y:\Documents\OTTD graphics\HEQS_build\Full HEQS\sprites\belly_dump_trailers/belly_dump_trailer_large.pcx 210 10 09 20 26 -17 -8
  399 Y:\Documents\OTTD graphics\HEQS_build\Full HEQS\sprites\belly_dump_trailers/belly_dump_trailer_large.pcx 242 10 01 16 36 -14 -6
  400 Y:\Documents\OTTD graphics\HEQS_build\Full HEQS\sprites\belly_dump_trailers/belly_dump_trailer_large.pcx 290 10 09 20 26 -13 -10
  401 * 9	 02 01 AA //normal action2 defining graphics with no loading/loaded stages 
      01 // number loading states
      01 // number loaded states
      00 00 // loading sprites
      00 00 // loaded sprites
  402 * 7	 03   // Action 3
      01  // RV 
      01  // Number of vehicles this action associate graphics with 
      06   // Vehicle ID
      00  // Number of different cargo types to support  
      AA 00
  // ----------------- end of Belly Dump Trailers -------------- //

  // ----------------- Bulldozers / Crawler Tractors -----------//      

  // No. 6	Crawler Tractor	65t	140hp	1937-1993	14mph
  // Mining version (add logging later)
  403 * 67	 00 01 19 01 94 
    00 00 00
    02 20
    03 11
    04 23
    06 0F
    07 05
    08 80
    09 1E 0A 48 4C 00 00 13 14 14 18 
    0E FF
    0F 00
    10 FF
    11 34
    12 17
    15 20
    16 40 00 00 00
    17 16
    1A 00
    1B 00
    1C 02
    1D 10 00          // Refittable cargo classes
    1E 00 00          // Non-refittable cargo classes
    1F 60 B3 0A 00

  404 * 36	 04 01 7F 01 94 "No. 6 Crawler Tractor (Mining)" 00
  405 * 4	 01 01 01 08
  406 Y:\Documents\OTTD graphics\HEQS_build\Full HEQS\sprites\bulldozers/no-6-bulldozer.pcx 34 9 01 24 12 -5 -15
  407 Y:\Documents\OTTD graphics\HEQS_build\Full HEQS\sprites\bulldozers/no-6-bulldozer.pcx 66 9 01 20 26 -16 -10
  408 Y:\Documents\OTTD graphics\HEQS_build\Full HEQS\sprites\bulldozers/no-6-bulldozer.pcx 98 9 01 16 36 -14 -9
  409 Y:\Documents\OTTD graphics\HEQS_build\Full HEQS\sprites\bulldozers/no-6-bulldozer.pcx 146 9 01 20 26 -5 -9
  410 Y:\Documents\OTTD graphics\HEQS_build\Full HEQS\sprites\bulldozers/no-6-bulldozer.pcx 178 9 01 24 12 -5 -13
  411 Y:\Documents\OTTD graphics\HEQS_build\Full HEQS\sprites\bulldozers/no-6-bulldozer.pcx 210 9 01 20 26 -17 -9
  412 Y:\Documents\OTTD graphics\HEQS_build\Full HEQS\sprites\bulldozers/no-6-bulldozer.pcx 242 9 01 16 36 -24 -10
  413 Y:\Documents\OTTD graphics\HEQS_build\Full HEQS\sprites\bulldozers/no-6-bulldozer.pcx 290 9 01 20 26 -10 -10
  414 * 9	 02 01 A0 01 01 00 00 00 00
  415 * 9	 02 01 A1 //normal action2 defining graphics with no loading/loaded stages 
      01 // number loading states
      01 // number loaded states
      00 00 // loading sprites
      00 00 // loaded sprites
  416 * 14	 02 01 B0 //ID B0
                 81 10 00 FF //check byte value of variable 10 (no bit shift, FF andmask)
                 01 //check one ranges
                 00 80 01 01 //give callback result of 00 for value 01*
                 FF FF //otherwise end the callback chain
  417 * 14	 02 01 B1 //ID B1
                 81 0C 00 FF //check byte value of variable 81 (no bit shift, FF andmask)
                 01 //check one range
                 B0 00 16 16 //go to ID B0 for value 16 (ie. go to the articulated vehicle building instructions)
                 A0 00 //otherwise go to ID A1 (ie. apply vehicle graphics)
  418 * 7	 03   // Action 3
      01  // RV 
      01  // Number of vehicles this action associate graphics with 
      94  // Vehicle ID
      00  // Number of different cargo types to support  
      B1 00   // Action 2 ID above



  // No. 6	Crawler Tractor	65t	140hp	1937-1993	14mph
  // General cargo version
  419 * 67	 00 01 19 01 95 
    00 00 00
    02 20
    03 11
    04 23
    06 0F
    07 05
    08 80
    09 1E 0A 48 4C 00 00 13 14 14 18 
    0E FF
    0F 00
    10 FF
    11 34
    12 17
    15 20
    16 00 00 00 00
    17 16
    1A 00
    1B 00
    1C 02
    1D FF 03
    1E 01 00
    1F 60 B3 0A 00

  420 * 45	 04 01 7F 01 95 "No. 6 Crawler Tractor (General Cargoes)" 00
  421 * 4	 01 01 01 08
  422 Y:\Documents\OTTD graphics\HEQS_build\Full HEQS\sprites\bulldozers/no-6-crawler.pcx 34 9 01 24 12 -5 -15
  423 Y:\Documents\OTTD graphics\HEQS_build\Full HEQS\sprites\bulldozers/no-6-crawler.pcx 66 9 01 20 26 -16 -10
  424 Y:\Documents\OTTD graphics\HEQS_build\Full HEQS\sprites\bulldozers/no-6-crawler.pcx 98 9 01 16 36 -14 -9
  425 Y:\Documents\OTTD graphics\HEQS_build\Full HEQS\sprites\bulldozers/no-6-crawler.pcx 146 9 01 20 26 -5 -9
  426 Y:\Documents\OTTD graphics\HEQS_build\Full HEQS\sprites\bulldozers/no-6-crawler.pcx 178 9 01 24 12 -5 -13
  427 Y:\Documents\OTTD graphics\HEQS_build\Full HEQS\sprites\bulldozers/no-6-crawler.pcx 210 9 01 20 26 -17 -9
  428 Y:\Documents\OTTD graphics\HEQS_build\Full HEQS\sprites\bulldozers/no-6-crawler.pcx 242 9 01 16 36 -24 -10
  429 Y:\Documents\OTTD graphics\HEQS_build\Full HEQS\sprites\bulldozers/no-6-crawler.pcx 290 9 01 20 26 -10 -10
  430 * 9	 02 01 A0 01 01 00 00 00 00
//!!Warning (94): Redefining ID A1 not used since previous definition at sprite 415.
  431 * 9	 02 01 A1 //normal action2 defining graphics with no loading/loaded stages 
      01 // number loading states
      01 // number loaded states
      00 00 // loading sprites
      00 00 // loaded sprites
  432 * 14	 02 01 B0 //ID B0
                 81 10 00 FF //check byte value of variable 10 (no bit shift, FF andmask)
                 01 //check one ranges
                 00 80 01 01 //give callback result of 00 for value 01*
                 FF FF //otherwise end the callback chain
  433 * 14	 02 01 B1 //ID B1
                 81 0C 00 FF //check byte value of variable 81 (no bit shift, FF andmask)
                 01 //check one range
                 B0 00 16 16 //go to ID B0 for value 16 (ie. go to the articulated vehicle building instructions)
                 A0 00 //otherwise go to ID A1 (ie. apply vehicle graphics)
  434 * 7	 03   // Action 3
      01  // RV 
      01  // Number of vehicles this action associate graphics with 
      95  // Vehicle ID
      00  // Number of different cargo types to support  
      B1 00   // Action 2 ID above



  // No. 8	Crawler Tractor	90t	285hp	1949-1972	12mph
  435 * 67	 00 01 19 01 96 
    00 00 00
    02 20
    03 11
    04 23
    06 0F
    07 05
    08 80
    09 1E 0A 48 4C 00 00 13 14 14 18 
    0E FF
    0F 00
    10 FF
    11 34
    12 17
    15 20
    16 00 00 00 00
    17 16
    1A 00
    1B 00
    1C 02
    1D FF 03
    1E 01 00
    1F 60 
    B3 0A 00
  436 * 21	 04 01 7F 01 96 "No. 8 Bulldozer" 00
  437 * 4	 01 01 01 08
  438 Y:\Documents\OTTD graphics\HEQS_build\Full HEQS\sprites/heqs2.pcx 642 952 01 24 12 -5 -13
  439 Y:\Documents\OTTD graphics\HEQS_build\Full HEQS\sprites/heqs2.pcx 674 952 09 20 26 -17 -9
  440 Y:\Documents\OTTD graphics\HEQS_build\Full HEQS\sprites/heqs2.pcx 706 952 01 16 36 -18 -8
  441 Y:\Documents\OTTD graphics\HEQS_build\Full HEQS\sprites/heqs2.pcx 754 952 09 20 26 -9 -10
  442 Y:\Documents\OTTD graphics\HEQS_build\Full HEQS\sprites/heqs2.pcx 2 1000 01 24 12 -5 -13
  443 Y:\Documents\OTTD graphics\HEQS_build\Full HEQS\sprites/heqs2.pcx 34 1000 09 20 26 -17 -8
  444 Y:\Documents\OTTD graphics\HEQS_build\Full HEQS\sprites/heqs2.pcx 66 1000 01 16 36 -18 -8
  445 Y:\Documents\OTTD graphics\HEQS_build\Full HEQS\sprites/heqs2.pcx 114 1000 09 20 26 -9 -10
  446 * 9	 02 01 A0 01 01 00 00 00 00
  447 * 4	 01 01 01 04
  448 * 1	 00
  449 * 1	 00
  450 Y:\Documents\OTTD graphics\HEQS_build\Full HEQS\sprites/heqs2.pcx 210 1000 01 16 36 -18 -8
  451 * 1	 00
//!!Warning (94): Redefining ID A1 not used since previous definition at sprite 431.
  452 * 9	 02 01 A1 01 01 00 00 00 00
//  798 * 18	 02 01 B0 81 10 00 FF 02 03 80 01 01 01 80 02 02 FF FF
  453 * 18	 02 01 B0 //ID B0
               81 10 00 FF //check byte value of variable 10 (no bit shift, FF andmask)
               02 //check one ranges
               04 80 01 01 //give callback result
               06 80 02 02 //give callback result
               FF FF //otherwise end the callback chain
  454 * 14	 02 01 B1 //ID B1
               81 0C 00 FF //check byte value of variable 81 (no bit shift, FF andmask)
               01 //check one range
               B0 00 16 16 //go to ID B0 for value 16 (ie. go to the articulated vehicle building instructions)
               A0 00 //otherwise go to ID A1 (ie. apply vehicle graphics)
  455 * 7	 03 01 01 96 00 B1 00

	// No. 9	Crawler Tractor	180t	400hp	1970-1994	12mph
  456 * 67	 00 01 19 01 97 
    00 00 00
    02 20
    03 11
    04 23
    06 0F
    07 05
    08 80
    09 1E 0A 48 4C 00 00 13 14 14 18 
    0E FF
    0F 00
    10 FF
    11 34
    12 17
    15 20
    16 00 00 00 00
    17 16
    1A 00
    1B 00
    1C 02
    1D FF 03
    1E 01 00
    1F 60 B3 0A 00
  457 * 21	 04 01 7F 01 97 "No. 9 Bulldozer" 00
  458 * 4	 01 01 01 08
  459 Y:\Documents\OTTD graphics\HEQS_build\Full HEQS\sprites\bulldozers/no-9-crawler.pcx 34 9 01 24 12 -5 -15
  460 Y:\Documents\OTTD graphics\HEQS_build\Full HEQS\sprites\bulldozers/no-9-crawler.pcx 66 9 01 20 26 -17 -9
  461 Y:\Documents\OTTD graphics\HEQS_build\Full HEQS\sprites\bulldozers/no-9-crawler.pcx 98 9 01 16 36 -14 -9
  462 Y:\Documents\OTTD graphics\HEQS_build\Full HEQS\sprites\bulldozers/no-9-crawler.pcx 146 9 01 20 26 -9 -10
  463 Y:\Documents\OTTD graphics\HEQS_build\Full HEQS\sprites\bulldozers/no-9-crawler.pcx 178 9 01 24 12 -5 -13
  464 Y:\Documents\OTTD graphics\HEQS_build\Full HEQS\sprites\bulldozers/no-9-crawler.pcx 210 9 01 20 26 -17 -9
  465 Y:\Documents\OTTD graphics\HEQS_build\Full HEQS\sprites\bulldozers/no-9-crawler.pcx 242 9 01 16 36 -24 -10
  466 Y:\Documents\OTTD graphics\HEQS_build\Full HEQS\sprites\bulldozers/no-9-crawler.pcx 290 9 01 20 26 -10 -10
  467 * 9	 02 01 A0 01 01 00 00 00 00
  468 * 18	 02 01 C1  // Action 2
    82 10 00 FF //check byte value of variable 10 (no bit shift, FF andmask)
    02 //check four ranges
      04 80 01 01  //give callback result of 03 for value 01
      06 80 02 02  //give callback result of 00 for value 02
    FF FF // end the callback chain
  469 * 14	 02 01 C0 // Action 2
    82 0C 00 FF //check byte value of variable 81 (no bit shift, FF andmask)
    01 //check one range
      C1 00 16 16 //go to ID C1 for value 16 (ie. go to the articulated vehicle building instructions)
    A0 00 //otherwise go to ID A0 (ie. apply vehicle graphics)

  470 * 18	 02 01 B1  // Action 2
    81 10 00 FF //check byte value of variable 10 (no bit shift, FF andmask)
    02 //check two ranges
      04 80 01 01  //give callback result of 03 for value 01
      06 80 02 02  //give callback result of 00 for value 02
    FF FF // end the callback chain
  471 * 14	 02 01 B0 // Action 2
    81 0C 00 FF //check byte value of variable 81 (no bit shift, FF andmask)
    01 //check one range
      B1 00 16 16 //go to ID C1 for value 16 (ie. go to the articulated vehicle building instructions)
    A0 00 //otherwise go to ID A0 (ie. apply vehicle graphics)

  472 * 13	 03 // Action 3
    01 // RV
    01 // Number of vehicles this action associate graphics with 
    97 // Vehicle ID
    02 // number of cargo types to define
    07 // wood 
    C0 00 // action 2 ID for wood
    08 // iron
    C0 00 // action 2 ID for iron
    B0 00      // Action 2 ID for default cargo    

  // ----------------- end of Bulldozers / Crawler Tractors -----------//      

  //--------------------- Wheeled Tractors ----------------------//

  // Fourtrac	Wheeled Tractor (high speed)	32t		1970-1991	35mph
  473 * 67	 00 01 19 01 80 
    00 00 00
    02 20
    03 11
    04 23
    06 0F
    07 05
    08 80
    09 1E 0A 48 4C 00 00 13 14 14 18 
    0E FF
    0F 00
    10 FF
    11 34
    12 17
    15 20
    16 00 00 00 00
    17 16
    1A 00
    1B 00
    1C 02
    1D FF 03
    1E 01 00
    1F 60 B3 0A 00
  474 * 14	 04 01 7F 01 80 "Fourtrac" 00
  475 * 4	 01 01 01 08      // Action 1 | RV | 1 sprite set | 8 members 
  476 Y:\Documents\OTTD graphics\HEQS_build\Full HEQS\sprites\tractors/fourtrac.pcx 34 9 01 24 12 -5 -15
  477 Y:\Documents\OTTD graphics\HEQS_build\Full HEQS\sprites\tractors/fourtrac.pcx 66 9 01 20 26 -17 -9
  478 Y:\Documents\OTTD graphics\HEQS_build\Full HEQS\sprites\tractors/fourtrac.pcx 98 9 01 16 36 -14 -9
  479 Y:\Documents\OTTD graphics\HEQS_build\Full HEQS\sprites\tractors/fourtrac.pcx 146 9 01 20 26 -9 -10
  480 Y:\Documents\OTTD graphics\HEQS_build\Full HEQS\sprites\tractors/fourtrac.pcx 178 9 01 24 12 -5 -13
  481 Y:\Documents\OTTD graphics\HEQS_build\Full HEQS\sprites\tractors/fourtrac.pcx 210 9 01 20 26 -17 -9
  482 Y:\Documents\OTTD graphics\HEQS_build\Full HEQS\sprites\tractors/fourtrac.pcx 242 9 01 16 36 -24 -10
  483 Y:\Documents\OTTD graphics\HEQS_build\Full HEQS\sprites\tractors/fourtrac.pcx 290 9 01 20 26 -10 -10
  484 * 9	 02 01 A0 01 01 00 00 00 00
  485 * 4	 01 01 01 01
  486 Y:\Documents\OTTD graphics\HEQS_build\Full HEQS\sprites\tractors/fourtrac.pcx 242 9 01 16 36 -18 -8
//!!Warning (94): Redefining ID A1 not used since previous definition at sprite 452.
  487 * 9	 02 01 A1 //normal action2 defining graphics with no loading/loaded stages 
    01 // number loading states
    01 // number loaded states
    00 00 // loading sprites
    00 00 // loaded sprites
  488 * 14	 02 01 B0 //ID B0
               81 10 00 FF //check byte value of variable 10 (no bit shift, FF andmask)
               01 //check one ranges
               00 80 01 01 //give callback result of 00 for value 01*
               FF FF //otherwise end the callback chain
  489 * 14	 02 01 B1 //ID B1
               81 0C 00 FF //check byte value of variable 81 (no bit shift, FF andmask)
               01 //check one range
               B0 00 16 16 //go to ID B0 for value 16 (ie. go to the articulated vehicle building instructions)
               A0 00 //otherwise go to ID A1 (ie. apply vehicle graphics)
  490 * 7	 03   // Action 3
    01  // RV 
    01  // Number of vehicles this action associate graphics with 
    80  // Vehicle ID
    00  // Number of different cargo types to support  
    B1 00   // Action 2 ID above

  // Speedytrac	Wheeled Tractor (high speed)	34t		1990-2010	50mph
  491 * 67	 00 01 19 01 81 
    00 00 00 
    02 20
    03 11
    04 23
    06 0F
    07 05
    08 80
    09 1E
    0A 48 4C 00 00 13 14 14 18
    0E FF
    0F 00
    10 FF
    11 34
    12 17
    15 20
    16 00 00 00 00
    17 16
    1A 00
    1B 00
    1C 02
    1D FF 03
    1E 01 00
    1F 60
    B3 0A 00
  492 * 16	 04 01 7F 01 81 "Speedytrac" 00
  493 * 4	 01 01 01 08      // Action 1 | RV | 1 sprite set | 8 members
  494 Y:\Documents\OTTD graphics\HEQS_build\Full HEQS\sprites\tractors/speedytrac.pcx 34 9 01 24 12 -5 -15
  495 Y:\Documents\OTTD graphics\HEQS_build\Full HEQS\sprites\tractors/speedytrac.pcx 66 9 01 20 26 -17 -9
  496 Y:\Documents\OTTD graphics\HEQS_build\Full HEQS\sprites\tractors/speedytrac.pcx 98 9 01 16 36 -14 -9
  497 Y:\Documents\OTTD graphics\HEQS_build\Full HEQS\sprites\tractors/speedytrac.pcx 146 9 01 20 26 -9 -10
  498 Y:\Documents\OTTD graphics\HEQS_build\Full HEQS\sprites\tractors/speedytrac.pcx 178 9 01 24 12 -5 -13
  499 Y:\Documents\OTTD graphics\HEQS_build\Full HEQS\sprites\tractors/speedytrac.pcx 210 9 01 20 26 -17 -9
  500 Y:\Documents\OTTD graphics\HEQS_build\Full HEQS\sprites\tractors/speedytrac.pcx 242 9 01 16 36 -24 -10
  501 Y:\Documents\OTTD graphics\HEQS_build\Full HEQS\sprites\tractors/speedytrac.pcx 290 9 01 20 26 -10 -10
  502 * 9	 02 01 A0 01 01 00 00 00 00
  503 * 4	 01 01 01 04
  504 * 1	 00
  505 * 1	 00
  506 Y:\Documents\OTTD graphics\HEQS_build\Full HEQS\sprites/heqs2.pcx 2 1144 01 16 36 -18 -8
  507 * 1	 00
//!!Warning (94): Redefining ID A1 not used since previous definition at sprite 487.
  508 * 9	 02 01 A1 01 01 00 00 00 00 //normal action2 defining graphics with no loading/loaded stages
  509 * 14	 02 01 B0 //ID B0
               81 10 00 FF //check byte value of variable 10 (no bit shift, FF andmask)
               01 //check one ranges
               00 80 01 01 //give callback result of 00 for value 01*
               FF FF //otherwise end the callback chain
  510 * 14	 02 01 B1 //ID B1
               81 0C 00 FF //check byte value of variable 81 (no bit shift, FF andmask)
               01 //check one range
               B0 00 16 16 //go to ID B0 for value 16 (ie. go to the articulated vehicle building instructions)
               A0 00 //otherwise go to ID A1 (ie. apply vehicle graphics)
  511 * 7	 03   // Action 3
    01  // RV 
    01  // Number of vehicles this action associate graphics with 
    81  // Vehicle ID
    00  // Number of different cargo types to support  
    B1 00   // Action 2 ID above

  // Super Speedytrac	Wheeled Tractor (high speed)	40t		2010-2050	60mph
  512 * 67	 00 01 19 01 82
    00 00 00 
    02 20 
    03 11 
    04 23 
    06 0F 
    07 05 
    08 80 
    09 1E 
    0A 48 4C 00 00 13 14 14 18 
    0E FF 
    0F 00 
    10 FF
    11 34
    12 17
    15 20
    16 00 00 00 00 
    17 16
    1A 00
    1B 00
    1C 02
    1D FF 03 
    1E 01 00
    1F 60 B3 0A 00
  513 * 22	 04 01 7F 01 82 "Super Speedytrac" 00
  514 * 4	 01 01 01 08      // Action 1 | RV | 1 sprite set | 8 members
  515 Y:\Documents\OTTD graphics\HEQS_build\Full HEQS\sprites\tractors/super_speedytrac.pcx 34 9 01 24 12 -5 -15
  516 Y:\Documents\OTTD graphics\HEQS_build\Full HEQS\sprites\tractors/super_speedytrac.pcx 66 9 01 20 26 -17 -9
  517 Y:\Documents\OTTD graphics\HEQS_build\Full HEQS\sprites\tractors/super_speedytrac.pcx 98 9 01 16 36 -14 -9
  518 Y:\Documents\OTTD graphics\HEQS_build\Full HEQS\sprites\tractors/super_speedytrac.pcx 146 9 01 20 26 -9 -10
  519 Y:\Documents\OTTD graphics\HEQS_build\Full HEQS\sprites\tractors/super_speedytrac.pcx 178 9 01 24 12 -5 -13
  520 Y:\Documents\OTTD graphics\HEQS_build\Full HEQS\sprites\tractors/super_speedytrac.pcx 210 9 01 20 26 -17 -9
  521 Y:\Documents\OTTD graphics\HEQS_build\Full HEQS\sprites\tractors/super_speedytrac.pcx 242 9 01 16 36 -24 -10
  522 Y:\Documents\OTTD graphics\HEQS_build\Full HEQS\sprites\tractors/super_speedytrac.pcx 290 9 01 20 26 -10 -10
  523 * 9	 02 01 A0 01 01 00 00 00 00
  524 * 4	 01 01 01 01
  525 Y:\Documents\OTTD graphics\HEQS_build\Full HEQS\sprites/heqs2.pcx 482 1048 01 16 36 -18 -8
//!!Warning (94): Redefining ID A1 not used since previous definition at sprite 508.
  526 * 9	 02 01 A1 01 01 00 00 00 00 //normal action2 defining graphics with no loading/loaded stages
  527 * 14	 02 01 B0 //ID B0
               81 10 00 FF //check byte value of variable 10 (no bit shift, FF andmask)
               01 //check one ranges
               00 80 01 01 //give callback result of 00 for value 01*
               FF FF //otherwise end the callback chain
  528 * 14	 02 01 B1 //ID B1
               81 0C 00 FF //check byte value of variable 81 (no bit shift, FF andmask)
               01 //check one range
               B0 00 16 16 //go to ID B0 for value 16 (ie. go to the articulated vehicle building instructions)
               A0 00 //otherwise go to ID A1 (ie. apply vehicle graphics)
  529 * 7	 03   // Action 3
    01  // RV 
    01  // Number of vehicles this action associate graphics with 
    82  // Vehicle ID
    00  // Number of different cargo types to support  
    B1 00   // Action 2 ID above

  // I think that's Wheeled Tractors done.  I'm not 100% sure of my NFO reading yet...

  // Dump trucks appear to start here with these Action 0s
  530 * 67	 00 01 19 01 1A
    00 \w1-1-1920  // intro date
    02 20     // reliability
    03 19     // vehicle life
    04 19     // class life
    06 0F     // climate
    07 05     // load amount
    08 \b112     // speed in mph * 3.2
    09 50     // running cost factor
    0A 48 4C 00 00 13 28 14 C8        // running cost base
    0E FF     // sprite ID
    0F \b30     // capacity
    10 FF     // cargo type 
    11 5D     // cost factor
    12 19     // sound effect
    15 \b112     // speed in mph * 0.8
    16 40 00 00 00    // Bit mask of cargo types available for refitting
    17 00     // Callback flags bit mask
    1A 00     // Refit cost, using 25% of the purchase price cost base
    1B 00     // Retire vehicle early, this many years before the end of phase 2
    1C 02     // Miscellaneous vehicle flags
    1D 10 00          // Refittable cargo classes
    1E EF 03          // Non-refittable cargo classes
    1F 93 E4 0A 00    // Long format introduction date
  531 * 67	 00 01 19 01 1B
    00 \w1-1-1920  // intro date
    02 20     // reliability
    03 19     // vehicle life
    04 19     // class life
    06 0F     // climate
    07 05     // load amount
    08 \b112     // speed in mph * 3.2
    09 50     // running cost factor
    0A 48 4C 00 00 13 28 14 C8        // running cost base
    0E FF     // sprite ID
    0F \b50     // capacity
    10 FF     // cargo type 
    11 5D     // cost factor
    12 19     // sound effect
    15 \b112     // speed in mph * 0.8
    16 40 00 00 00    // Bit mask of cargo types available for refitting
    17 00     // Callback flags bit mask
    1A 00     // Refit cost, using 25% of the purchase price cost base
    1B 00     // Retire vehicle early, this many years before the end of phase 2
    1C 02     // Miscellaneous vehicle flags
    1D 10 00          // Refittable cargo classes
    1E EF 03          // Non-refittable cargo classes
    1F 72 EC 0A 00    // Long format introduction date
  532 * 67	 00 01 19 01 1D
    00 \w1-1-1920  // intro date
    02 20     // reliability
    03 19     // vehicle life
    04 19     // class life
    06 0F     // climate
    07 05     // load amount
    08 \b128     // speed in mph * 3.2
    09 50     // running cost factor
    0A 48 4C 00 00 13 28 14 C8        // running cost base
    0E FF     // sprite ID
    0F \b60     // capacity
    10 FF     // cargo type 
    11 5D     // cost factor
    12 19     // sound effect
    15 \b128     // speed in mph * 0.8
    16 40 00 00 00    // Bit mask of cargo types available for refitting
    17 00     // Callback flags bit mask
    1A 00     // Refit cost, using 25% of the purchase price cost base
    1B 00     // Retire vehicle early, this many years before the end of phase 2
    1C 02     // Miscellaneous vehicle flags
    1D 10 00          // Refittable cargo classes
    1E EF 03          // Non-refittable cargo classes
    1F 2F 07 0B 00   // Long format introduction date

  533 * 67	 00 01 19 01 1F            // Action 0
    00 \w1-1-1920  // intro date
    02 20     // reliability
    03 19     // vehicle life
    04 19     // class life
    06 0F     // climate
    07 05     // load amount
    08 \b128     // speed in mph * 3.2
    09 50     // running cost factor
    0A 48 4C 00 00 13 28 14 C8        // running cost base
    0E FF     // sprite ID
    0F \b95     // capacity
    10 FF     // cargo type 
    11 5D     // cost factor
    12 19     // sound effect
    15 \b128     // speed in mph * 0.8
    16 40 00 00 00    // Bit mask of cargo types available for refitting
    17 00     // Callback flags bit mask
    1A 00     // Refit cost, using 25% of the purchase price cost base
    1B 00     // Retire vehicle early, this many years before the end of phase 2
    1C 02     // Miscellaneous vehicle flags
    1D 10 00          // Refittable cargo classes
    1E EF 03          // Non-refittable cargo classes
    1F 84 25 0B 00   // Long format introduction date  
  534 * 67	 00 01 19 01 11
    00 \w1-1-1920  // intro date
    02 20     // reliability
    03 19     // vehicle life
    04 19     // class life
    06 0F     // climate
    07 05     // load amount
    08 \b128     // speed in mph * 3.2
    09 50     // running cost factor
    0A 48 4C 00 00 13 28 14 C8        // running cost base
    0E FF     // sprite ID
    0F \b60     // capacity
    10 FF     // cargo type 
    11 5D     // cost factor
    12 19     // sound effect
    15 \b128     // speed in mph * 0.8
    16 40 00 00 00    // Bit mask of cargo types available for refitting
    17 00     // Callback flags bit mask
    1A 00     // Refit cost, using 25% of the purchase price cost base
    1B 00     // Retire vehicle early, this many years before the end of phase 2
    1C 02     // Miscellaneous vehicle flags
    1D 10 00          // Refittable cargo classes
    1E EF 03          // Non-refittable cargo classes
    1F 2F 07 0B 00   // Long format introduction date
  535 * 29	 04 01 7F 01 1A "Mt. McKinley Dump Truck" 00
  536 * 30	 04 01 7F 01 1B "Mount Rainier Dump Truck" 00
  537 * 28	 04 01 7F 01 1D "Harney Peak Dump Truck" 00
  538 * 28	 04 01 7F 01 1F "Kilimanjaro Dump Truck" 00
  539 * 27	 04 01 7F 01 11 "Unitised Mining Truck" 00
  540 * 4	 01 01 07 08
  541 Y:\Documents\OTTD graphics\HEQS_build\Full HEQS\sprites/heqs2.pcx 306 1144 01 24 12 -5 -13
  542 Y:\Documents\OTTD graphics\HEQS_build\Full HEQS\sprites/heqs2.pcx 338 1144 09 20 26 -17 -9
  543 Y:\Documents\OTTD graphics\HEQS_build\Full HEQS\sprites/heqs2.pcx 370 1144 01 16 36 -18 -8
  544 Y:\Documents\OTTD graphics\HEQS_build\Full HEQS\sprites/heqs2.pcx 418 1144 09 20 26 -9 -10
  545 Y:\Documents\OTTD graphics\HEQS_build\Full HEQS\sprites/heqs2.pcx 450 1144 01 24 12 -5 -13
  546 Y:\Documents\OTTD graphics\HEQS_build\Full HEQS\sprites/heqs2.pcx 482 1144 09 20 26 -17 -9
  547 Y:\Documents\OTTD graphics\HEQS_build\Full HEQS\sprites/heqs2.pcx 514 1144 01 16 36 -18 -8
  548 Y:\Documents\OTTD graphics\HEQS_build\Full HEQS\sprites/heqs2.pcx 562 1144 09 20 26 -9 -10
  549 Y:\Documents\OTTD graphics\HEQS_build\Full HEQS\sprites/heqs2.pcx 594 1144 01 24 12 -5 -13
  550 Y:\Documents\OTTD graphics\HEQS_build\Full HEQS\sprites/heqs2.pcx 626 1144 09 20 26 -17 -9
  551 Y:\Documents\OTTD graphics\HEQS_build\Full HEQS\sprites/heqs2.pcx 658 1144 01 16 36 -18 -8
  552 Y:\Documents\OTTD graphics\HEQS_build\Full HEQS\sprites/heqs2.pcx 706 1144 09 20 26 -9 -10
  553 Y:\Documents\OTTD graphics\HEQS_build\Full HEQS\sprites/heqs2.pcx 738 1144 01 24 12 -5 -13
  554 Y:\Documents\OTTD graphics\HEQS_build\Full HEQS\sprites/heqs2.pcx 770 1144 09 20 26 -17 -9
  555 Y:\Documents\OTTD graphics\HEQS_build\Full HEQS\sprites/heqs2.pcx 2 1192 01 16 36 -18 -8
  556 Y:\Documents\OTTD graphics\HEQS_build\Full HEQS\sprites/heqs2.pcx 50 1192 09 20 26 -9 -10
  557 Y:\Documents\OTTD graphics\HEQS_build\Full HEQS\sprites/heqs2.pcx 82 1192 01 24 12 -5 -13
  558 Y:\Documents\OTTD graphics\HEQS_build\Full HEQS\sprites/heqs2.pcx 114 1192 09 20 26 -17 -9
  559 Y:\Documents\OTTD graphics\HEQS_build\Full HEQS\sprites/heqs2.pcx 146 1192 01 16 36 -18 -8
  560 Y:\Documents\OTTD graphics\HEQS_build\Full HEQS\sprites/heqs2.pcx 194 1192 09 20 26 -9 -10
  561 Y:\Documents\OTTD graphics\HEQS_build\Full HEQS\sprites/heqs2.pcx 226 1192 01 24 12 -5 -13
  562 Y:\Documents\OTTD graphics\HEQS_build\Full HEQS\sprites/heqs2.pcx 258 1192 09 20 26 -17 -9
  563 Y:\Documents\OTTD graphics\HEQS_build\Full HEQS\sprites/heqs2.pcx 290 1192 01 16 36 -18 -8
  564 Y:\Documents\OTTD graphics\HEQS_build\Full HEQS\sprites/heqs2.pcx 338 1192 09 20 26 -9 -10
  565 Y:\Documents\OTTD graphics\HEQS_build\Full HEQS\sprites/heqs2.pcx 370 1192 01 24 12 -5 -13
  566 Y:\Documents\OTTD graphics\HEQS_build\Full HEQS\sprites/heqs2.pcx 402 1192 09 20 26 -17 -9
  567 Y:\Documents\OTTD graphics\HEQS_build\Full HEQS\sprites/heqs2.pcx 434 1192 01 16 36 -18 -8
  568 Y:\Documents\OTTD graphics\HEQS_build\Full HEQS\sprites/heqs2.pcx 482 1192 09 20 26 -9 -10
  569 Y:\Documents\OTTD graphics\HEQS_build\Full HEQS\sprites/heqs2.pcx 514 1192 01 24 12 -5 -13
  570 Y:\Documents\OTTD graphics\HEQS_build\Full HEQS\sprites/heqs2.pcx 546 1192 09 20 26 -17 -9
  571 Y:\Documents\OTTD graphics\HEQS_build\Full HEQS\sprites/heqs2.pcx 578 1192 01 16 36 -18 -8
  572 Y:\Documents\OTTD graphics\HEQS_build\Full HEQS\sprites/heqs2.pcx 626 1192 09 20 26 -9 -10
  573 Y:\Documents\OTTD graphics\HEQS_build\Full HEQS\sprites/heqs2.pcx 658 1192 01 24 12 -5 -13
  574 Y:\Documents\OTTD graphics\HEQS_build\Full HEQS\sprites/heqs2.pcx 690 1192 09 20 26 -17 -9
  575 Y:\Documents\OTTD graphics\HEQS_build\Full HEQS\sprites/heqs2.pcx 722 1192 01 16 36 -18 -8
  576 Y:\Documents\OTTD graphics\HEQS_build\Full HEQS\sprites/heqs2.pcx 770 1192 09 20 26 -9 -10
  577 Y:\Documents\OTTD graphics\HEQS_build\Full HEQS\sprites/heqs2.pcx 2 1240 01 24 12 -5 -13
  578 Y:\Documents\OTTD graphics\HEQS_build\Full HEQS\sprites/heqs2.pcx 34 1240 09 20 26 -17 -9
  579 Y:\Documents\OTTD graphics\HEQS_build\Full HEQS\sprites/heqs2.pcx 66 1240 01 16 36 -18 -8
  580 Y:\Documents\OTTD graphics\HEQS_build\Full HEQS\sprites/heqs2.pcx 114 1240 09 20 26 -9 -10
  581 Y:\Documents\OTTD graphics\HEQS_build\Full HEQS\sprites/heqs2.pcx 146 1240 01 24 12 -5 -13
[...]
  686 Y:\Documents\OTTD graphics\HEQS_build\Full HEQS\sprites/heqs2.pcx 242 1432 09 20 26 -17 -9
  687 Y:\Documents\OTTD graphics\HEQS_build\Full HEQS\sprites/heqs2.pcx 274 1432 01 16 36 -18 -8
  688 Y:\Documents\OTTD graphics\HEQS_build\Full HEQS\sprites/heqs2.pcx 322 1432 09 20 26 -9 -10
  689 Y:\Documents\OTTD graphics\HEQS_build\Full HEQS\sprites/heqs2.pcx 354 1432 01 24 12 -5 -13
  690 Y:\Documents\OTTD graphics\HEQS_build\Full HEQS\sprites/heqs2.pcx 386 1432 09 20 26 -17 -9
  691 Y:\Documents\OTTD graphics\HEQS_build\Full HEQS\sprites/heqs2.pcx 418 1432 01 16 36 -18 -8
  692 Y:\Documents\OTTD graphics\HEQS_build\Full HEQS\sprites/heqs2.pcx 466 1432 09 20 26 -9 -10
  693 Y:\Documents\OTTD graphics\HEQS_build\Full HEQS\sprites/heqs2.pcx 498 1432 01 24 12 -5 -13
  694 Y:\Documents\OTTD graphics\HEQS_build\Full HEQS\sprites/heqs2.pcx 530 1432 09 20 26 -17 -9
  695 Y:\Documents\OTTD graphics\HEQS_build\Full HEQS\sprites/heqs2.pcx 562 1432 01 16 36 -18 -8
  696 Y:\Documents\OTTD graphics\HEQS_build\Full HEQS\sprites/heqs2.pcx 610 1432 09 20 26 -9 -10
  697 Y:\Documents\OTTD graphics\HEQS_build\Full HEQS\sprites/heqs2.pcx 642 1432 01 24 12 -5 -13
  698 Y:\Documents\OTTD graphics\HEQS_build\Full HEQS\sprites/heqs2.pcx 674 1432 09 20 26 -17 -9
  699 Y:\Documents\OTTD graphics\HEQS_build\Full HEQS\sprites/heqs2.pcx 706 1432 01 16 36 -18 -8
  700 Y:\Documents\OTTD graphics\HEQS_build\Full HEQS\sprites/heqs2.pcx 754 1432 09 20 26 -9 -10
  701 Y:\Documents\OTTD graphics\HEQS_build\Full HEQS\sprites/heqs2.pcx 2 1480 01 24 12 -5 -13
  702 Y:\Documents\OTTD graphics\HEQS_build\Full HEQS\sprites/heqs2.pcx 34 1480 09 20 26 -17 -9
  703 Y:\Documents\OTTD graphics\HEQS_build\Full HEQS\sprites/heqs2.pcx 66 1480 01 16 36 -18 -8
  704 Y:\Documents\OTTD graphics\HEQS_build\Full HEQS\sprites/heqs2.pcx 114 1480 09 20 26 -9 -10
  705 Y:\Documents\OTTD graphics\HEQS_build\Full HEQS\sprites/heqs2.pcx 146 1480 01 24 12 -5 -13
  706 Y:\Documents\OTTD graphics\HEQS_build\Full HEQS\sprites/heqs2.pcx 178 1480 09 20 26 -17 -9
  707 Y:\Documents\OTTD graphics\HEQS_build\Full HEQS\sprites/heqs2.pcx 210 1480 01 16 36 -18 -8
  708 Y:\Documents\OTTD graphics\HEQS_build\Full HEQS\sprites/heqs2.pcx 258 1480 09 20 26 -9 -10
  709 Y:\Documents\OTTD graphics\HEQS_build\Full HEQS\sprites/heqs2.pcx 290 1480 01 24 12 -5 -13
  710 Y:\Documents\OTTD graphics\HEQS_build\Full HEQS\sprites/heqs2.pcx 322 1480 09 20 26 -17 -9
  711 Y:\Documents\OTTD graphics\HEQS_build\Full HEQS\sprites/heqs2.pcx 354 1480 01 16 36 -18 -8
  712 Y:\Documents\OTTD graphics\HEQS_build\Full HEQS\sprites/heqs2.pcx 402 1480 09 20 26 -9 -10
  713 Y:\Documents\OTTD graphics\HEQS_build\Full HEQS\sprites/heqs2.pcx 434 1480 01 24 12 -5 -13
  714 Y:\Documents\OTTD graphics\HEQS_build\Full HEQS\sprites/heqs2.pcx 466 1480 09 20 26 -17 -9
  715 Y:\Documents\OTTD graphics\HEQS_build\Full HEQS\sprites/heqs2.pcx 498 1480 01 16 36 -18 -8
  716 Y:\Documents\OTTD graphics\HEQS_build\Full HEQS\sprites/heqs2.pcx 546 1480 09 20 26 -9 -10
  717 Y:\Documents\OTTD graphics\HEQS_build\Full HEQS\sprites/heqs2.pcx 578 1480 01 24 12 -5 -13
  718 Y:\Documents\OTTD graphics\HEQS_build\Full HEQS\sprites/heqs2.pcx 610 1480 09 20 26 -17 -9
  719 Y:\Documents\OTTD graphics\HEQS_build\Full HEQS\sprites/heqs2.pcx 642 1480 01 16 36 -18 -8
  720 Y:\Documents\OTTD graphics\HEQS_build\Full HEQS\sprites/heqs2.pcx 690 1480 09 20 26 -9 -10
  721 Y:\Documents\OTTD graphics\HEQS_build\Full HEQS\sprites/heqs2.pcx 722 1480 01 24 12 -5 -13
  722 Y:\Documents\OTTD graphics\HEQS_build\Full HEQS\sprites/heqs2.pcx 754 1480 09 20 26 -17 -9
  723 Y:\Documents\OTTD graphics\HEQS_build\Full HEQS\sprites/heqs2.pcx 2 1528 01 16 36 -18 -8
  724 Y:\Documents\OTTD graphics\HEQS_build\Full HEQS\sprites/heqs2.pcx 50 1528 09 20 26 -9 -10
  725 Y:\Documents\OTTD graphics\HEQS_build\Full HEQS\sprites/heqs2.pcx 82 1528 01 24 12 -5 -13
  726 Y:\Documents\OTTD graphics\HEQS_build\Full HEQS\sprites/heqs2.pcx 114 1528 09 20 26 -17 -9
  727 Y:\Documents\OTTD graphics\HEQS_build\Full HEQS\sprites/heqs2.pcx 146 1528 01 16 36 -18 -8
  728 Y:\Documents\OTTD graphics\HEQS_build\Full HEQS\sprites/heqs2.pcx 194 1528 09 20 26 -9 -10
  729 Y:\Documents\OTTD graphics\HEQS_build\Full HEQS\sprites/heqs2.pcx 226 1528 01 24 12 -5 -13
  730 Y:\Documents\OTTD graphics\HEQS_build\Full HEQS\sprites/heqs2.pcx 258 1528 09 20 26 -17 -9
  731 Y:\Documents\OTTD graphics\HEQS_build\Full HEQS\sprites/heqs2.pcx 290 1528 01 16 36 -18 -8
  732 Y:\Documents\OTTD graphics\HEQS_build\Full HEQS\sprites/heqs2.pcx 338 1528 09 20 26 -9 -10
  733 Y:\Documents\OTTD graphics\HEQS_build\Full HEQS\sprites/heqs2.pcx 370 1528 01 24 12 -5 -13
  734 Y:\Documents\OTTD graphics\HEQS_build\Full HEQS\sprites/heqs2.pcx 402 1528 09 20 26 -17 -9
  735 Y:\Documents\OTTD graphics\HEQS_build\Full HEQS\sprites/heqs2.pcx 434 1528 01 16 36 -18 -8
  736 Y:\Documents\OTTD graphics\HEQS_build\Full HEQS\sprites/heqs2.pcx 482 1528 09 20 26 -9 -10
  737 * 13	 02 01 A1 02 02 00 00 01 00 00 00 01 00
  738 * 13	 02 01 A2 02 02 00 00 02 00 00 00 02 00
  739 * 13	 02 01 A3 02 02 00 00 03 00 00 00 03 00
  740 * 13	 02 01 A4 02 02 00 00 04 00 00 00 04 00
  741 * 13	 02 01 A5 02 02 00 00 05 00 00 00 05 00
  742 * 13	 02 01 A6 02 02 00 00 06 00 00 00 06 00
  743 * 4	 01 01 01 04
  744 * 1	 00
  745 * 1	 00
  746 Y:\Documents\OTTD graphics\HEQS_build\Full HEQS\sprites/heqs2.pcx 658 1528 01 16 36 -18 -8
  747 * 1	 00
  748 * 9	 02 01 AF 01 01 00 00 00 00
  749 * 25	 03 01 01 1D 06 01 A1 00 08 A2 00 0E A3 00 11 A4 00 17 A5 00 FF AF 00 A6 00
  750 * 4	 01 01 07 08
  751 Y:\Documents\OTTD graphics\HEQS_build\Full HEQS\sprites/heqs2.pcx 770 1528 01 24 12 -5 -13
  752 Y:\Documents\OTTD graphics\HEQS_build\Full HEQS\sprites/heqs2.pcx 2 1576 09 20 26 -17 -9
  753 Y:\Documents\OTTD graphics\HEQS_build\Full HEQS\sprites/heqs2.pcx 34 1576 01 16 36 -18 -8
  754 Y:\Documents\OTTD graphics\HEQS_build\Full HEQS\sprites/heqs2.pcx 82 1576 09 20 26 -9 -10
  755 Y:\Documents\OTTD graphics\HEQS_build\Full HEQS\sprites/heqs2.pcx 114 1576 01 24 12 -5 -13
  756 Y:\Documents\OTTD graphics\HEQS_build\Full HEQS\sprites/heqs2.pcx 146 1576 09 20 26 -17 -9
  757 Y:\Documents\OTTD graphics\HEQS_build\Full HEQS\sprites/heqs2.pcx 178 1576 01 16 36 -18 -8
  758 Y:\Documents\OTTD graphics\HEQS_build\Full HEQS\sprites/heqs2.pcx 226 1576 09 20 26 -9 -10
  759 Y:\Documents\OTTD graphics\HEQS_build\Full HEQS\sprites/heqs2.pcx 258 1576 01 24 12 -5 -13
  760 Y:\Documents\OTTD graphics\HEQS_build\Full HEQS\sprites/heqs2.pcx 290 1576 09 20 26 -17 -9
  761 Y:\Documents\OTTD graphics\HEQS_build\Full HEQS\sprites/heqs2.pcx 322 1576 01 16 36 -18 -8
  762 Y:\Documents\OTTD graphics\HEQS_build\Full HEQS\sprites/heqs2.pcx 370 1576 09 20 26 -9 -10
  763 Y:\Documents\OTTD graphics\HEQS_build\Full HEQS\sprites/heqs2.pcx 402 1576 01 24 12 -5 -13
  764 Y:\Documents\OTTD graphics\HEQS_build\Full HEQS\sprites/heqs2.pcx 434 1576 09 20 26 -17 -9
  765 Y:\Documents\OTTD graphics\HEQS_build\Full HEQS\sprites/heqs2.pcx 466 1576 01 16 36 -18 -8
  766 Y:\Documents\OTTD graphics\HEQS_build\Full HEQS\sprites/heqs2.pcx 514 1576 09 20 26 -9 -10
  767 Y:\Documents\OTTD graphics\HEQS_build\Full HEQS\sprites/heqs2.pcx 546 1576 01 24 12 -5 -13
  768 Y:\Documents\OTTD graphics\HEQS_build\Full HEQS\sprites/heqs2.pcx 578 1576 09 20 26 -17 -9
  769 Y:\Documents\OTTD graphics\HEQS_build\Full HEQS\sprites/heqs2.pcx 610 1576 01 16 36 -18 -8
  770 Y:\Documents\OTTD graphics\HEQS_build\Full HEQS\sprites/heqs2.pcx 658 1576 09 20 26 -9 -10
  771 Y:\Documents\OTTD graphics\HEQS_build\Full HEQS\sprites/heqs2.pcx 690 1576 01 24 12 -5 -13
  772 Y:\Documents\OTTD graphics\HEQS_build\Full HEQS\sprites/heqs2.pcx 722 1576 09 20 26 -17 -9
  773 Y:\Documents\OTTD graphics\HEQS_build\Full HEQS\sprites/heqs2.pcx 754 1576 01 16 36 -18 -8
  774 Y:\Documents\OTTD graphics\HEQS_build\Full HEQS\sprites/heqs2.pcx 2 1624 09 20 26 -9 -10
  775 Y:\Documents\OTTD graphics\HEQS_build\Full HEQS\sprites/heqs2.pcx 34 1624 01 24 12 -5 -13
  776 Y:\Documents\OTTD graphics\HEQS_build\Full HEQS\sprites/heqs2.pcx 66 1624 09 20 26 -17 -9
  777 Y:\Documents\OTTD graphics\HEQS_build\Full HEQS\sprites/heqs2.pcx 98 1624 01 16 36 -18 -8
  778 Y:\Documents\OTTD graphics\HEQS_build\Full HEQS\sprites/heqs2.pcx 146 1624 09 20 26 -9 -10
  779 Y:\Documents\OTTD graphics\HEQS_build\Full HEQS\sprites/heqs2.pcx 178 1624 01 24 12 -5 -13
  780 Y:\Documents\OTTD graphics\HEQS_build\Full HEQS\sprites/heqs2.pcx 210 1624 09 20 26 -17 -9
  781 Y:\Documents\OTTD graphics\HEQS_build\Full HEQS\sprites/heqs2.pcx 242 1624 01 16 36 -18 -8
  782 Y:\Documents\OTTD graphics\HEQS_build\Full HEQS\sprites/heqs2.pcx 290 1624 09 20 26 -9 -10
  783 Y:\Documents\OTTD graphics\HEQS_build\Full HEQS\sprites/heqs2.pcx 322 1624 01 24 12 -5 -13
  784 Y:\Documents\OTTD graphics\HEQS_build\Full HEQS\sprites/heqs2.pcx 354 1624 09 20 26 -17 -9
  785 Y:\Documents\OTTD graphics\HEQS_build\Full HEQS\sprites/heqs2.pcx 386 1624 01 16 36 -18 -8
  786 Y:\Documents\OTTD graphics\HEQS_build\Full HEQS\sprites/heqs2.pcx 434 1624 09 20 26 -9 -10
  787 Y:\Documents\OTTD graphics\HEQS_build\Full HEQS\sprites/heqs2.pcx 466 1624 01 24 12 -5 -13
  788 Y:\Documents\OTTD graphics\HEQS_build\Full HEQS\sprites/heqs2.pcx 498 1624 09 20 26 -17 -9
  789 Y:\Documents\OTTD graphics\HEQS_build\Full HEQS\sprites/heqs2.pcx 530 1624 01 16 36 -18 -8
  790 Y:\Documents\OTTD graphics\HEQS_build\Full HEQS\sprites/heqs2.pcx 578 1624 09 20 26 -9 -10
  791 Y:\Documents\OTTD graphics\HEQS_build\Full HEQS\sprites/heqs2.pcx 610 1624 01 24 12 -5 -13
  792 Y:\Documents\OTTD graphics\HEQS_build\Full HEQS\sprites/heqs2.pcx 642 1624 09 20 26 -17 -9
  793 Y:\Documents\OTTD graphics\HEQS_build\Full HEQS\sprites/heqs2.pcx 674 1624 01 16 36 -18 -8
  794 Y:\Documents\OTTD graphics\HEQS_build\Full HEQS\sprites/heqs2.pcx 722 1624 09 20 26 -9 -10
  795 Y:\Documents\OTTD graphics\HEQS_build\Full HEQS\sprites/heqs2.pcx 754 1624 01 24 12 -5 -13
  796 Y:\Documents\OTTD graphics\HEQS_build\Full HEQS\sprites/heqs2.pcx 2 1672 09 20 26 -17 -9
  797 Y:\Documents\OTTD graphics\HEQS_build\Full HEQS\sprites/heqs2.pcx 34 1672 01 16 36 -18 -8
  798 Y:\Documents\OTTD graphics\HEQS_build\Full HEQS\sprites/heqs2.pcx 82 1672 09 20 26 -9 -10
  799 Y:\Documents\OTTD graphics\HEQS_build\Full HEQS\sprites/heqs2.pcx 114 1672 01 24 12 -5 -13
  800 Y:\Documents\OTTD graphics\HEQS_build\Full HEQS\sprites/heqs2.pcx 146 1672 09 20 26 -17 -9
  801 Y:\Documents\OTTD graphics\HEQS_build\Full HEQS\sprites/heqs2.pcx 178 1672 01 16 36 -18 -8
  802 Y:\Documents\OTTD graphics\HEQS_build\Full HEQS\sprites/heqs2.pcx 226 1672 09 20 26 -9 -10
  803 Y:\Documents\OTTD graphics\HEQS_build\Full HEQS\sprites/heqs2.pcx 258 1672 01 24 12 -5 -13
  804 Y:\Documents\OTTD graphics\HEQS_build\Full HEQS\sprites/heqs2.pcx 290 1672 09 20 26 -17 -9
  805 Y:\Documents\OTTD graphics\HEQS_build\Full HEQS\sprites/heqs2.pcx 322 1672 01 16 36 -18 -8
  806 Y:\Documents\OTTD graphics\HEQS_build\Full HEQS\sprites/heqs2.pcx 370 1672 09 20 26 -9 -10
  807 * 13	 02 01 A1 02 02 00 00 01 00 00 00 01 00
  808 * 13	 02 01 A2 02 02 00 00 02 00 00 00 02 00
  809 * 13	 02 01 A3 02 02 00 00 03 00 00 00 03 00
  810 * 13	 02 01 A4 02 02 00 00 04 00 00 00 04 00
  811 * 13	 02 01 A5 02 02 00 00 05 00 00 00 05 00
  812 * 13	 02 01 A6 02 02 00 00 06 00 00 00 06 00
  813 * 4	 01 01 01 04
  814 * 1	 00
  815 * 1	 00
  816 Y:\Documents\OTTD graphics\HEQS_build\Full HEQS\sprites/heqs2.pcx 546 1672 01 16 36 -18 -8
  817 * 1	 00
  818 * 9	 02 01 AF 01 01 00 00 00 00
  819 * 25	 03 01 01 1F 06 01 A1 00 08 A2 00 0E A3 00 11 A4 00 17 A5 00 FF AF 00 A6 00
  820 * 4	 01 01 07 08
  // unitised hauler empty
  821 Y:\Documents\OTTD graphics\HEQS_build\Full HEQS\sprites\mining_trucks/unitised_mining_truck.pcx 34 10 01 24 12 -5 -15
  822 Y:\Documents\OTTD graphics\HEQS_build\Full HEQS\sprites\mining_trucks/unitised_mining_truck.pcx 66 10 01 22 30 -17 -10
  823 Y:\Documents\OTTD graphics\HEQS_build\Full HEQS\sprites\mining_trucks/unitised_mining_truck.pcx 98 10 01 16 36 -14 -9
  824 Y:\Documents\OTTD graphics\HEQS_build\Full HEQS\sprites\mining_trucks/unitised_mining_truck.pcx 146 10 01 22 30 -10 -10
  825 Y:\Documents\OTTD graphics\HEQS_build\Full HEQS\sprites\mining_trucks/unitised_mining_truck.pcx 178 10 01 24 12 -5 -13
  826 Y:\Documents\OTTD graphics\HEQS_build\Full HEQS\sprites\mining_trucks/unitised_mining_truck.pcx 210 10 01 22 30 -18 -11
  827 Y:\Documents\OTTD graphics\HEQS_build\Full HEQS\sprites\mining_trucks/unitised_mining_truck.pcx 242 10 01 16 36 -24 -10
  828 Y:\Documents\OTTD graphics\HEQS_build\Full HEQS\sprites\mining_trucks/unitised_mining_truck.pcx 290 10 01 22 30 -9 -11
  // unitised hauler coal
  829 Y:\Documents\OTTD graphics\HEQS_build\Full HEQS\sprites\mining_trucks/unitised_mining_truck_coal.pcx 34 10 01 24 12 -5 -15
  830 Y:\Documents\OTTD graphics\HEQS_build\Full HEQS\sprites\mining_trucks/unitised_mining_truck_coal.pcx 66 10 01 22 30 -17 -10
  831 Y:\Documents\OTTD graphics\HEQS_build\Full HEQS\sprites\mining_trucks/unitised_mining_truck_coal.pcx 98 10 01 16 36 -14 -9
  832 Y:\Documents\OTTD graphics\HEQS_build\Full HEQS\sprites\mining_trucks/unitised_mining_truck_coal.pcx 146 10 01 22 30 -10 -10
  833 Y:\Documents\OTTD graphics\HEQS_build\Full HEQS\sprites\mining_trucks/unitised_mining_truck_coal.pcx 178 10 01 24 12 -5 -13
  834 Y:\Documents\OTTD graphics\HEQS_build\Full HEQS\sprites\mining_trucks/unitised_mining_truck_coal.pcx 210 10 01 22 30 -18 -11
  835 Y:\Documents\OTTD graphics\HEQS_build\Full HEQS\sprites\mining_trucks/unitised_mining_truck_coal.pcx 242 10 01 16 36 -24 -10
  836 Y:\Documents\OTTD graphics\HEQS_build\Full HEQS\sprites\mining_trucks/unitised_mining_truck_coal.pcx 290 10 01 22 30 -9 -11
  // unitised hauler iron 
  837 Y:\Documents\OTTD graphics\HEQS_build\Full HEQS\sprites\mining_trucks/unitised_mining_truck_iron.pcx 34 10 01 24 12 -5 -15
  838 Y:\Documents\OTTD graphics\HEQS_build\Full HEQS\sprites\mining_trucks/unitised_mining_truck_iron.pcx 66 10 01 22 30 -17 -10
  839 Y:\Documents\OTTD graphics\HEQS_build\Full HEQS\sprites\mining_trucks/unitised_mining_truck_iron.pcx 98 10 01 16 36 -14 -9
  840 Y:\Documents\OTTD graphics\HEQS_build\Full HEQS\sprites\mining_trucks/unitised_mining_truck_iron.pcx 146 10 01 22 30 -10 -10
  841 Y:\Documents\OTTD graphics\HEQS_build\Full HEQS\sprites\mining_trucks/unitised_mining_truck_iron.pcx 178 10 01 24 12 -5 -13
  842 Y:\Documents\OTTD graphics\HEQS_build\Full HEQS\sprites\mining_trucks/unitised_mining_truck_iron.pcx 210 10 01 22 30 -18 -11
  843 Y:\Documents\OTTD graphics\HEQS_build\Full HEQS\sprites\mining_trucks/unitised_mining_truck_iron.pcx 242 10 01 16 36 -24 -10
  844 Y:\Documents\OTTD graphics\HEQS_build\Full HEQS\sprites\mining_trucks/unitised_mining_truck_iron.pcx 290 10 01 22 30 -9 -11
  // unitised hauler brown
  845 Y:\Documents\OTTD graphics\HEQS_build\Full HEQS\sprites\mining_trucks/unitised_mining_truck_brown.pcx 34 10 01 24 12 -5 -15
  846 Y:\Documents\OTTD graphics\HEQS_build\Full HEQS\sprites\mining_trucks/unitised_mining_truck_brown.pcx 66 10 01 22 30 -17 -10
  847 Y:\Documents\OTTD graphics\HEQS_build\Full HEQS\sprites\mining_trucks/unitised_mining_truck_brown.pcx 98 10 01 16 36 -14 -9
  848 Y:\Documents\OTTD graphics\HEQS_build\Full HEQS\sprites\mining_trucks/unitised_mining_truck_brown.pcx 146 10 01 22 30 -10 -10
  849 Y:\Documents\OTTD graphics\HEQS_build\Full HEQS\sprites\mining_trucks/unitised_mining_truck_brown.pcx 178 10 01 24 12 -5 -13
  850 Y:\Documents\OTTD graphics\HEQS_build\Full HEQS\sprites\mining_trucks/unitised_mining_truck_brown.pcx 210 10 01 22 30 -18 -11
  851 Y:\Documents\OTTD graphics\HEQS_build\Full HEQS\sprites\mining_trucks/unitised_mining_truck_brown.pcx 242 10 01 16 36 -24 -10
  852 Y:\Documents\OTTD graphics\HEQS_build\Full HEQS\sprites\mining_trucks/unitised_mining_truck_brown.pcx 290 10 01 22 30 -9 -11
  // unitised hauler white 
  853 Y:\Documents\OTTD graphics\HEQS_build\Full HEQS\sprites\mining_trucks/unitised_mining_truck_white.pcx 34 10 01 24 12 -5 -15
  854 Y:\Documents\OTTD graphics\HEQS_build\Full HEQS\sprites\mining_trucks/unitised_mining_truck_white.pcx 66 10 01 22 30 -17 -10
  855 Y:\Documents\OTTD graphics\HEQS_build\Full HEQS\sprites\mining_trucks/unitised_mining_truck_white.pcx 98 10 01 16 36 -14 -9
  856 Y:\Documents\OTTD graphics\HEQS_build\Full HEQS\sprites\mining_trucks/unitised_mining_truck_white.pcx 146 10 01 22 30 -10 -10
  857 Y:\Documents\OTTD graphics\HEQS_build\Full HEQS\sprites\mining_trucks/unitised_mining_truck_white.pcx 178 10 01 24 12 -5 -13
  858 Y:\Documents\OTTD graphics\HEQS_build\Full HEQS\sprites\mining_trucks/unitised_mining_truck_white.pcx 210 10 01 22 30 -18 -11
  859 Y:\Documents\OTTD graphics\HEQS_build\Full HEQS\sprites\mining_trucks/unitised_mining_truck_white.pcx 242 10 01 16 36 -24 -10
  860 Y:\Documents\OTTD graphics\HEQS_build\Full HEQS\sprites\mining_trucks/unitised_mining_truck_white.pcx 290 10 01 22 30 -9 -11
  // unitised hauler red
  861 Y:\Documents\OTTD graphics\HEQS_build\Full HEQS\sprites\mining_trucks/unitised_mining_truck_red.pcx 34 10 01 24 12 -5 -15
  862 Y:\Documents\OTTD graphics\HEQS_build\Full HEQS\sprites\mining_trucks/unitised_mining_truck_red.pcx 66 10 01 22 30 -17 -10
  863 Y:\Documents\OTTD graphics\HEQS_build\Full HEQS\sprites\mining_trucks/unitised_mining_truck_red.pcx 98 10 01 16 36 -14 -9
  864 Y:\Documents\OTTD graphics\HEQS_build\Full HEQS\sprites\mining_trucks/unitised_mining_truck_red.pcx 146 10 01 22 30 -10 -10
  865 Y:\Documents\OTTD graphics\HEQS_build\Full HEQS\sprites\mining_trucks/unitised_mining_truck_red.pcx 178 10 01 24 12 -5 -13
  866 Y:\Documents\OTTD graphics\HEQS_build\Full HEQS\sprites\mining_trucks/unitised_mining_truck_red.pcx 210 10 01 22 30 -18 -11
  867 Y:\Documents\OTTD graphics\HEQS_build\Full HEQS\sprites\mining_trucks/unitised_mining_truck_red.pcx 242 10 01 16 36 -24 -10
  868 Y:\Documents\OTTD graphics\HEQS_build\Full HEQS\sprites\mining_trucks/unitised_mining_truck_red.pcx 290 10 01 22 30 -9 -11
  // unitised hauler gre
  869 Y:\Documents\OTTD graphics\HEQS_build\Full HEQS\sprites\mining_trucks/unitised_mining_truck_grey.pcx 34 10 01 24 12 -5 -15
  870 Y:\Documents\OTTD graphics\HEQS_build\Full HEQS\sprites\mining_trucks/unitised_mining_truck_grey.pcx 66 10 01 22 30 -17 -10
  871 Y:\Documents\OTTD graphics\HEQS_build\Full HEQS\sprites\mining_trucks/unitised_mining_truck_grey.pcx 98 10 01 16 36 -14 -9
  872 Y:\Documents\OTTD graphics\HEQS_build\Full HEQS\sprites\mining_trucks/unitised_mining_truck_grey.pcx 146 10 01 22 30 -10 -10
  873 Y:\Documents\OTTD graphics\HEQS_build\Full HEQS\sprites\mining_trucks/unitised_mining_truck_grey.pcx 178 10 01 24 12 -5 -13
  874 Y:\Documents\OTTD graphics\HEQS_build\Full HEQS\sprites\mining_trucks/unitised_mining_truck_grey.pcx 210 10 01 22 30 -18 -11
  875 Y:\Documents\OTTD graphics\HEQS_build\Full HEQS\sprites\mining_trucks/unitised_mining_truck_grey.pcx 242 10 01 16 36 -24 -10
  876 Y:\Documents\OTTD graphics\HEQS_build\Full HEQS\sprites\mining_trucks/unitised_mining_truck_grey.pcx 290 10 01 22 30 -9 -11
  877 * 13	 02 01 A1 02 02 00 00 01 00 00 00 01 00
  878 * 13	 02 01 A2 02 02 00 00 02 00 00 00 02 00
  879 * 13	 02 01 A3 02 02 00 00 03 00 00 00 03 00
  880 * 13	 02 01 A4 02 02 00 00 04 00 00 00 04 00
  881 * 13	 02 01 A5 02 02 00 00 05 00 00 00 05 00
  882 * 13	 02 01 A6 02 02 00 00 06 00 00 00 06 00
  883 * 4	 01 01 01 04
  884 * 1	 00
  885 * 1	 00
  886 Y:\Documents\OTTD graphics\HEQS_build\Full HEQS\sprites\mining_trucks/unitised_mining_truck.pcx 98 10 01 16 36 -14 -9
  887 * 1	 00
  888 * 9	 02 01 AF 01 01 00 00 00 00
  889 * 25	 03 01 01 11 06 01 A1 00 08 A2 00 0E A3 00 11 A4 00 17 A5 00 FF AF 00 A6 00
//!!For feature 1 the following cargoIDs have not been used since their most recent definition:
//!!FF (last defined at sprite 354)
