// Automatically generated by GRFCODEC. Do not modify!
// (Info version 7)
// Format: spritenum pcxfile xpos ypos compression ysize xsize xrel yrel
    0 * 4	 7C 04 00 00
    1 * 147	 08 06 "AP" 12 01 "HEQS (Preview) v0.3" 00 "Heavy equipment "
	 "(Preview) v0.3 in dual company "
	 "colours. Brought to you by"
	 "andythenorth and Richard Wheeler (Zephyris)"
	 "2008" 00

    2 * 170	 00 08 01 29 00 09 "PASSCOALMAILOIL_LVSTGOODGRAIWOODIORESTELVALU"
	 "PAPRFOODFRUTCOREWATRRUBRSUGRTOYSBATTSWETTOFFCOLACT"
	 "CDBUBLPLSTFZDRWHEAGOLDMAIZTWODDIAM___A___B___C___D"
	 "___E___F___G___H___I"


    3 * 67	 00 01 19 01 01 
      00 00 00  // intro date
      02 20     // reliability
      03 19     // vehicle life
      04 23     // class life
      06 00     // climate
      07 05     // load amount
      08 E0     // speed in mph * 3.2
      09 08     // running cost factor
      0A 48 4C 00 00 13 00 14 28        // running cost base
      0E FF     // sprite ID
      0F 32     // capacity
      10 FF     // cargo type
      11 00     // cost factor
      12 00     // sound effect
      15 38     // speed in mph * 0.8
      16 00 00 00 00    // Bit mask of cargo types available for refitting
      17 16     // Callback flags bit mask
      1A 00     // Refit cost, using 25% of the purchase price cost base
      1B 00     // Retire vehicle early, this many years before the end of phase 2
      1C 02     // Miscellaneous vehicle flags     
      1D FF 03     // Refittable cargo classes 
      1E 01 00     // Non-refittable cargo classes
      1F 60 B3 0A 00   // Long format introduction date 

    4 * 67	 00 01 19 01 0A 00 00 00 02 20 03 11 04 23 06 0F 07 05 08 80 09 1E 0A 48 4C 00 00 13 14 14 18 0E
	 FF 0F 00 10 FF 11 34 12 17 15 20 16 00 00 00 00 17 16 1A 00 1B 00 1C 02 1D FF 03 1E 00 00 1F 60
	 B3 0A 00
    5 * 67	 00 01 19 01 0B 00 00 00 02 20 03 11 04 23 06 0F 07 05 08 80 09 1E 0A 48 4C 00 00 13 14 14 18 0E
	 FF 0F 00 10 FF 11 34 12 17 15 20 16 00 00 00 00 17 16 1A 00 1B 00 1C 02 1D FF 03 1E 00 00 1F 60
	 B3 0A 00
    6 * 67	 00 01 19 01 0C 00 00 00 02 20 03 11 04 23 06 0F 07 05 08 80 09 1E 0A 48 4C 00 00 13 14 14 18 0E
	 FF 0F 00 10 FF 11 34 12 17 15 20 16 00 00 00 00 17 16 1A 00 1B 00 1C 02 1D FF 03 1E 00 00 1F 60
	 B3 0A 00
    7 * 29	 04 01 7F 01 01 "[Generic Large Trailer]" 00


   // ----------- Trailer dollies -------------//
   // Large dolly
    8 * 67	 00 01 19 01 03 // Action 0
      00 00 00  // intro date
      02 20     // reliability
      03 19     // vehicle life
      04 23     // class life
      06 00     // climate
      07 05     // load amount
      08 E0     // speed in mph * 3.2
      09 08     // running cost factor
      0A 48 4C 00 00 13 00 14 20 // running cost base
      0E FF     // sprite ID
      0F 00     // capacity
      10 FF     // cargo type
      11 00     // cost factor
      12 00     // sound effect
      15 38     // speed in mph * 0.8
      16 00 00 00 00    // Bit mask of cargo types available for refitting
      17 16     // Callback flags bit mask
      1A 00     // Refit cost, using 25% of the purchase price cost base
      1B 00     // Retire vehicle early, this many years before the end of phase 2
      1C 02     // Miscellaneous vehicle flags     
      1D FF 03     // Refittable cargo classes 
      1E 01 00     // Non-refittable cargo classes
      1F 60 B3 0A 00   // Long format introduction date     
    9 * 19	 04 01 7F 01 03 "[Large Dolly]" 00
   10 * 4	 01 01 01 08
   11 Y:\Documents\OTTD graphics\HEQS_build\Full HEQS\sprites/dolly_large.pcx 34 10 01 24 12 -5 -18
   12 Y:\Documents\OTTD graphics\HEQS_build\Full HEQS\sprites/dolly_large.pcx 66 10 09 20 26 -8 -13
   13 Y:\Documents\OTTD graphics\HEQS_build\Full HEQS\sprites/dolly_large.pcx 98 10 01 16 36 -12 -9
   14 Y:\Documents\OTTD graphics\HEQS_build\Full HEQS\sprites/dolly_large.pcx 146 10 09 20 26 -6 -9
   15 Y:\Documents\OTTD graphics\HEQS_build\Full HEQS\sprites/dolly_large.pcx 178 10 01 24 12 -7 -10
   16 Y:\Documents\OTTD graphics\HEQS_build\Full HEQS\sprites/dolly_large.pcx 210 10 09 20 26 -18 -7
   17 Y:\Documents\OTTD graphics\HEQS_build\Full HEQS\sprites/dolly_large.pcx 242 10 01 16 36 -15 -10
   18 Y:\Documents\OTTD graphics\HEQS_build\Full HEQS\sprites/dolly_large.pcx 290 10 09 20 26 -13 -13
   19 * 9	 02 01 BB 01 01 00 00 00 00
   20 * 14	 02 01 AA 81 0C 00 FF 01 05 80 11 11 BB 00
   21 * 7	 03   // Action 3
      01  // RV 
      01  // Number of vehicles this action associate graphics with 
      03   // Vehicle ID
      00  // Number of different cargo types to support  
      AA 00

   // Very Large dolly
   22 * 67	 00 01 19 01 04 // Action 0
      00 00 00  // intro date
      02 20     // reliability
      03 19     // vehicle life
      04 23     // class life
      06 00     // climate
      07 05     // load amount
      08 E0     // speed in mph * 3.2
      09 08     // running cost factor
      0A 48 4C 00 00 13 00 14 20 // running cost base
      0E FF     // sprite ID
      0F 00     // capacity
      10 FF     // cargo type
      11 00     // cost factor
      12 00     // sound effect
      15 38     // speed in mph * 0.8
      16 00 00 00 00    // Bit mask of cargo types available for refitting
      17 16     // Callback flags bit mask
      1A 00     // Refit cost, using 25% of the purchase price cost base
      1B 00     // Retire vehicle early, this many years before the end of phase 2
      1C 02     // Miscellaneous vehicle flags     
      1D FF 03     // Refittable cargo classes 
      1E 01 00     // Non-refittable cargo classes
      1F 60 B3 0A 00   // Long format introduction date     
   23 * 24	 04 01 7F 01 04 "[Very Large Dolly]" 00
   24 * 4	 01 01 01 08
   25 Y:\Documents\OTTD graphics\HEQS_build\Full HEQS\sprites/dolly_very_large.pcx 34 10 01 24 12 -5 -16
   26 Y:\Documents\OTTD graphics\HEQS_build\Full HEQS\sprites/dolly_very_large.pcx 66 10 09 20 26 -12 -11
   27 Y:\Documents\OTTD graphics\HEQS_build\Full HEQS\sprites/dolly_very_large.pcx 98 10 01 16 36 -18 -8
   28 Y:\Documents\OTTD graphics\HEQS_build\Full HEQS\sprites/dolly_very_large.pcx 146 10 09 20 26 -4 -5
   29 Y:\Documents\OTTD graphics\HEQS_build\Full HEQS\sprites/dolly_very_large.pcx 178 10 01 24 12 -8 -8
   30 Y:\Documents\OTTD graphics\HEQS_build\Full HEQS\sprites/dolly_very_large.pcx 210 10 09 20 26 -26 -4
   31 Y:\Documents\OTTD graphics\HEQS_build\Full HEQS\sprites/dolly_very_large.pcx 242 10 01 16 36 -24 -8
   32 Y:\Documents\OTTD graphics\HEQS_build\Full HEQS\sprites/dolly_very_large.pcx 290 10 09 20 26 -16 -15
   33 * 9	 02 01 BB 01 01 00 00 00 00
   34 * 14	 02 01 AA 81 0C 00 FF 01 05 80 11 11 BB 00
   35 * 7	 03   // Action 3
      01  // RV 
      01  // Number of vehicles this action associate graphics with 
      04   // Vehicle ID
      00  // Number of different cargo types to support  
      AA 00
   // ----------------- end trailer dollies -------------------//


    // ------------ Medium Trailers ------------------ //

   // Medium Trailers

   36 * 67	 00 01 19 01 00
      00 00 00  // intro date
      02 20     // reliability
      03 19     // vehicle life
      04 23     // class life
      06 00     // climate
      07 05     // load amount
      08 E0     // speed in mph * 3.2
      09 08     // running cost factor
      0A 48 4C 00 00 13 00 14 20    // running cost base
      0E FF     // sprite ID
      0F 1E     // capacity
      10 FF     // cargo type
      11 00     // cost factor
      12 00     // sound effect
      15 38     // speed in mph * 0.8
      16 00 00 00 00    // Bit mask of cargo types available for refitting
      17 16     // Callback flags bit mask
      1A 00     // Refit cost, using 25% of the purchase price cost base
      1B 00     // Retire vehicle early, this many years before the end of phase 2
      1C 02     // Miscellaneous vehicle flags 
      1D FF 03      // Refittable cargo classes
      1E 01 00      // Non-refittable cargo classes
      1F 60 B3 0A 00    // Long format introduction date     
   37 * 30	 04 01 7F 01 00 "[Generic Medium Trailer]" 00
   // Medium Goods Trailer
   38 * 4	 01 01 01 08
   39 Y:\Documents\OTTD graphics\HEQS_build\Full HEQS\sprites\medium_trailers/box_trailer_med.pcx 34 15 01 24 12 -3 -10
   40 Y:\Documents\OTTD graphics\HEQS_build\Full HEQS\sprites\medium_trailers/box_trailer_med.pcx 66 15 01 20 26 -11 -9
   41 Y:\Documents\OTTD graphics\HEQS_build\Full HEQS\sprites\medium_trailers/box_trailer_med.pcx 98 15 01 16 36 -14 -6
   42 Y:\Documents\OTTD graphics\HEQS_build\Full HEQS\sprites\medium_trailers/box_trailer_med.pcx 146 15 01 20 26 -9 -7
   43 Y:\Documents\OTTD graphics\HEQS_build\Full HEQS\sprites\medium_trailers/box_trailer_med.pcx 178 15 01 24 12 -9 -16
   44 Y:\Documents\OTTD graphics\HEQS_build\Full HEQS\sprites\medium_trailers/box_trailer_med.pcx 210 15 01 20 26 -17 -7
   45 Y:\Documents\OTTD graphics\HEQS_build\Full HEQS\sprites\medium_trailers/box_trailer_med.pcx 242 15 01 16 36 -14 -6
   46 Y:\Documents\OTTD graphics\HEQS_build\Full HEQS\sprites\medium_trailers/box_trailer_med.pcx 290 15 01 20 26 -13 -10
   47 * 9	 02 01 05 01 01 00 00 00 00
   // ???????
   48 * 4	 01 01 01 08
   49 Y:\Documents\OTTD graphics\HEQS_build\Full HEQS\sprites/heqs2.pcx 434 40 01 18 8 -3 -10
   50 Y:\Documents\OTTD graphics\HEQS_build\Full HEQS\sprites/heqs2.pcx 450 40 09 16 20 -14 -7
   51 Y:\Documents\OTTD graphics\HEQS_build\Full HEQS\sprites/heqs2.pcx 482 40 01 12 28 -14 -6
   52 Y:\Documents\OTTD graphics\HEQS_build\Full HEQS\sprites/heqs2.pcx 530 40 09 16 20 -6 -8
   53 Y:\Documents\OTTD graphics\HEQS_build\Full HEQS\sprites/heqs2.pcx 562 40 01 18 8 -3 -10
   54 Y:\Documents\OTTD graphics\HEQS_build\Full HEQS\sprites/heqs2.pcx 578 40 09 16 20 -14 -8
   55 Y:\Documents\OTTD graphics\HEQS_build\Full HEQS\sprites/heqs2.pcx 610 40 01 12 28 -14 -6
   56 Y:\Documents\OTTD graphics\HEQS_build\Full HEQS\sprites/heqs2.pcx 658 40 09 16 20 -6 -7
   57 * 9	 02 01 0A 01 01 00 00 00 00
   // Medium end dump trailer - empty
   58 * 4	 01 01 11 08
   59 Y:\Documents\OTTD graphics\HEQS_build\Full HEQS\sprites\medium_trailers/end_dump_trailer_med.pcx 34 15 01 24 12 -3 -10
   60 Y:\Documents\OTTD graphics\HEQS_build\Full HEQS\sprites\medium_trailers/end_dump_trailer_med.pcx 66 15 09 20 26 -11 -9
   61 Y:\Documents\OTTD graphics\HEQS_build\Full HEQS\sprites\medium_trailers/end_dump_trailer_med.pcx 98 15 01 16 36 -14 -6
   62 Y:\Documents\OTTD graphics\HEQS_build\Full HEQS\sprites\medium_trailers/end_dump_trailer_med.pcx 146 15 09 20 26 -9 -7
   63 Y:\Documents\OTTD graphics\HEQS_build\Full HEQS\sprites\medium_trailers/end_dump_trailer_med.pcx 178 15 01 24 12 -9 -16
   64 Y:\Documents\OTTD graphics\HEQS_build\Full HEQS\sprites\medium_trailers/end_dump_trailer_med.pcx 210 15 09 20 26 -17 -7
   65 Y:\Documents\OTTD graphics\HEQS_build\Full HEQS\sprites\medium_trailers/end_dump_trailer_med.pcx 242 15 01 16 36 -14 -6
   66 Y:\Documents\OTTD graphics\HEQS_build\Full HEQS\sprites\medium_trailers/end_dump_trailer_med.pcx 290 15 09 20 26 -13 -10
   // Medium end dump - iron ore, loading  !! this isn't iron ore??
   67 Y:\Documents\OTTD graphics\HEQS_build\Full HEQS\sprites\medium_trailers/end_dump_trailer_med_iron.pcx 34 15 01 24 12 -3 -10
   68 Y:\Documents\OTTD graphics\HEQS_build\Full HEQS\sprites\medium_trailers/end_dump_trailer_med_iron.pcx 66 15 09 20 20 -11 -9
   69 Y:\Documents\OTTD graphics\HEQS_build\Full HEQS\sprites\medium_trailers/end_dump_trailer_med_iron.pcx 98 15 01 16 36 -14 -6
   70 Y:\Documents\OTTD graphics\HEQS_build\Full HEQS\sprites\medium_trailers/end_dump_trailer_med_iron.pcx 146 15 09 20 26 -9 -7
   71 Y:\Documents\OTTD graphics\HEQS_build\Full HEQS\sprites\medium_trailers/end_dump_trailer_med_iron.pcx 178 15 01 24 12 -9 -16
   72 Y:\Documents\OTTD graphics\HEQS_build\Full HEQS\sprites\medium_trailers/end_dump_trailer_med_iron.pcx 210 15 09 20 26 -17 -7
   73 Y:\Documents\OTTD graphics\HEQS_build\Full HEQS\sprites\medium_trailers/end_dump_trailer_med_iron.pcx 242 15 01 16 36 -14 -6
   74 Y:\Documents\OTTD graphics\HEQS_build\Full HEQS\sprites\medium_trailers/end_dump_trailer_med_iron.pcx 290 15 09 20 26 -13 -10
   // Medium end dump - iron ore, loaded  !! this isn't iron ore??
   75 Y:\Documents\OTTD graphics\HEQS_build\Full HEQS\sprites\medium_trailers/end_dump_trailer_med_iron.pcx 34 15 01 24 12 -3 -10
   76 Y:\Documents\OTTD graphics\HEQS_build\Full HEQS\sprites\medium_trailers/end_dump_trailer_med_iron.pcx 66 15 09 20 20 -11 -9
   77 Y:\Documents\OTTD graphics\HEQS_build\Full HEQS\sprites\medium_trailers/end_dump_trailer_med_iron.pcx 98 15 01 16 36 -14 -6
   78 Y:\Documents\OTTD graphics\HEQS_build\Full HEQS\sprites\medium_trailers/end_dump_trailer_med_iron.pcx 146 15 09 20 26 -9 -7
   79 Y:\Documents\OTTD graphics\HEQS_build\Full HEQS\sprites\medium_trailers/end_dump_trailer_med_iron.pcx 178 15 01 24 12 -9 -16
   80 Y:\Documents\OTTD graphics\HEQS_build\Full HEQS\sprites\medium_trailers/end_dump_trailer_med_iron.pcx 210 15 09 20 26 -17 -7
   81 Y:\Documents\OTTD graphics\HEQS_build\Full HEQS\sprites\medium_trailers/end_dump_trailer_med_iron.pcx 242 15 01 16 36 -14 -6
   82 Y:\Documents\OTTD graphics\HEQS_build\Full HEQS\sprites\medium_trailers/end_dump_trailer_med_iron.pcx 290 15 09 20 26 -13 -10
   // Medium end dump - coal, loading
   83 Y:\Documents\OTTD graphics\HEQS_build\Full HEQS\sprites\medium_trailers/end_dump_trailer_med_coal.pcx 34 15 01 24 12 -3 -10
   84 Y:\Documents\OTTD graphics\HEQS_build\Full HEQS\sprites\medium_trailers/end_dump_trailer_med_coal.pcx 66 15 09 20 26 -11 -9
   85 Y:\Documents\OTTD graphics\HEQS_build\Full HEQS\sprites\medium_trailers/end_dump_trailer_med_coal.pcx 98 15 01 16 36 -14 -6
   86 Y:\Documents\OTTD graphics\HEQS_build\Full HEQS\sprites\medium_trailers/end_dump_trailer_med_coal.pcx 146 15 09 20 26 -9 -7
   87 Y:\Documents\OTTD graphics\HEQS_build\Full HEQS\sprites\medium_trailers/end_dump_trailer_med_coal.pcx 178 15 01 24 12 -9 -16
   88 Y:\Documents\OTTD graphics\HEQS_build\Full HEQS\sprites\medium_trailers/end_dump_trailer_med_coal.pcx 210 15 09 20 26 -17 -7
   89 Y:\Documents\OTTD graphics\HEQS_build\Full HEQS\sprites\medium_trailers/end_dump_trailer_med_coal.pcx 242 15 01 16 36 -14 -6
   90 Y:\Documents\OTTD graphics\HEQS_build\Full HEQS\sprites\medium_trailers/end_dump_trailer_med_coal.pcx 290 15 09 20 26 -13 -10
   // Medium end dump - coal, loaded
   91 Y:\Documents\OTTD graphics\HEQS_build\Full HEQS\sprites\medium_trailers/end_dump_trailer_med_coal.pcx 34 15 01 24 12 -3 -10
   92 Y:\Documents\OTTD graphics\HEQS_build\Full HEQS\sprites\medium_trailers/end_dump_trailer_med_coal.pcx 66 15 09 20 26 -11 -9
   93 Y:\Documents\OTTD graphics\HEQS_build\Full HEQS\sprites\medium_trailers/end_dump_trailer_med_coal.pcx 98 15 01 16 36 -14 -6
   94 Y:\Documents\OTTD graphics\HEQS_build\Full HEQS\sprites\medium_trailers/end_dump_trailer_med_coal.pcx 146 15 09 20 26 -9 -7
   95 Y:\Documents\OTTD graphics\HEQS_build\Full HEQS\sprites\medium_trailers/end_dump_trailer_med_coal.pcx 178 15 01 24 12 -9 -16
   96 Y:\Documents\OTTD graphics\HEQS_build\Full HEQS\sprites\medium_trailers/end_dump_trailer_med_coal.pcx 210 15 09 20 26 -17 -7
   97 Y:\Documents\OTTD graphics\HEQS_build\Full HEQS\sprites\medium_trailers/end_dump_trailer_med_coal.pcx 242 15 01 16 36 -14 -6
   98 Y:\Documents\OTTD graphics\HEQS_build\Full HEQS\sprites\medium_trailers/end_dump_trailer_med_coal.pcx 290 15 09 20 26 -13 -10
   // Medium end dump - grain, loading
   99 Y:\Documents\OTTD graphics\HEQS_build\Full HEQS\sprites\medium_trailers/end_dump_trailer_med_grain.pcx 34 15 01 24 12 -3 -10
  100 Y:\Documents\OTTD graphics\HEQS_build\Full HEQS\sprites\medium_trailers/end_dump_trailer_med_grain.pcx 66 15 09 20 26 -11 -9
  101 Y:\Documents\OTTD graphics\HEQS_build\Full HEQS\sprites\medium_trailers/end_dump_trailer_med_grain.pcx 98 15 01 16 36 -14 -6
  102 Y:\Documents\OTTD graphics\HEQS_build\Full HEQS\sprites\medium_trailers/end_dump_trailer_med_grain.pcx 146 15 09 20 26 -9 -7
  103 Y:\Documents\OTTD graphics\HEQS_build\Full HEQS\sprites\medium_trailers/end_dump_trailer_med_grain.pcx 178 15 01 24 12 -9 -16
  104 Y:\Documents\OTTD graphics\HEQS_build\Full HEQS\sprites\medium_trailers/end_dump_trailer_med_grain.pcx 210 15 09 20 26 -17 -7
  105 Y:\Documents\OTTD graphics\HEQS_build\Full HEQS\sprites\medium_trailers/end_dump_trailer_med_grain.pcx 242 15 01 16 36 -14 -6
  106 Y:\Documents\OTTD graphics\HEQS_build\Full HEQS\sprites\medium_trailers/end_dump_trailer_med_grain.pcx 290 15 09 20 26 -13 -10
  // Medium end dump - grain, loaded
  107 Y:\Documents\OTTD graphics\HEQS_build\Full HEQS\sprites\medium_trailers/end_dump_trailer_med_grain.pcx 34 15 01 24 12 -3 -10
  108 Y:\Documents\OTTD graphics\HEQS_build\Full HEQS\sprites\medium_trailers/end_dump_trailer_med_grain.pcx 66 15 09 20 26 -11 -9
  109 Y:\Documents\OTTD graphics\HEQS_build\Full HEQS\sprites\medium_trailers/end_dump_trailer_med_grain.pcx 98 15 01 16 36 -14 -6
  110 Y:\Documents\OTTD graphics\HEQS_build\Full HEQS\sprites\medium_trailers/end_dump_trailer_med_grain.pcx 146 15 09 20 26 -9 -7
  111 Y:\Documents\OTTD graphics\HEQS_build\Full HEQS\sprites\medium_trailers/end_dump_trailer_med_grain.pcx 178 15 01 24 12 -9 -16
  112 Y:\Documents\OTTD graphics\HEQS_build\Full HEQS\sprites\medium_trailers/end_dump_trailer_med_grain.pcx 210 15 09 20 26 -17 -7
  113 Y:\Documents\OTTD graphics\HEQS_build\Full HEQS\sprites\medium_trailers/end_dump_trailer_med_grain.pcx 242 15 01 16 36 -14 -6
  114 Y:\Documents\OTTD graphics\HEQS_build\Full HEQS\sprites\medium_trailers/end_dump_trailer_med_grain.pcx 290 15 09 20 26 -13 -10
  // Medium end dump - clay, loading
  115 Y:\Documents\OTTD graphics\HEQS_build\Full HEQS\sprites\medium_trailers/end_dump_trailer_med_brown.pcx 34 15 01 24 12 -3 -10
  116 Y:\Documents\OTTD graphics\HEQS_build\Full HEQS\sprites\medium_trailers/end_dump_trailer_med_brown.pcx 66 15 09 20 26 -11 -9
  117 Y:\Documents\OTTD graphics\HEQS_build\Full HEQS\sprites\medium_trailers/end_dump_trailer_med_brown.pcx 98 15 01 16 36 -14 -6
  118 Y:\Documents\OTTD graphics\HEQS_build\Full HEQS\sprites\medium_trailers/end_dump_trailer_med_brown.pcx 146 15 09 20 26 -9 -7
  119 Y:\Documents\OTTD graphics\HEQS_build\Full HEQS\sprites\medium_trailers/end_dump_trailer_med_brown.pcx 178 15 01 24 12 -9 -16
  120 Y:\Documents\OTTD graphics\HEQS_build\Full HEQS\sprites\medium_trailers/end_dump_trailer_med_brown.pcx 210 15 09 20 26 -17 -7
  121 Y:\Documents\OTTD graphics\HEQS_build\Full HEQS\sprites\medium_trailers/end_dump_trailer_med_brown.pcx 242 15 01 16 36 -14 -6
  122 Y:\Documents\OTTD graphics\HEQS_build\Full HEQS\sprites\medium_trailers/end_dump_trailer_med_brown.pcx 290 15 09 20 26 -13 -10
  // Medium end dump - clay, loaded
  123 Y:\Documents\OTTD graphics\HEQS_build\Full HEQS\sprites\medium_trailers/end_dump_trailer_med_brown.pcx 34 15 01 24 12 -3 -10
  124 Y:\Documents\OTTD graphics\HEQS_build\Full HEQS\sprites\medium_trailers/end_dump_trailer_med_brown.pcx 66 15 09 20 26 -11 -9
  125 Y:\Documents\OTTD graphics\HEQS_build\Full HEQS\sprites\medium_trailers/end_dump_trailer_med_brown.pcx 98 15 01 16 36 -14 -6
  126 Y:\Documents\OTTD graphics\HEQS_build\Full HEQS\sprites\medium_trailers/end_dump_trailer_med_brown.pcx 146 15 09 20 26 -9 -7
  127 Y:\Documents\OTTD graphics\HEQS_build\Full HEQS\sprites\medium_trailers/end_dump_trailer_med_brown.pcx 178 15 01 24 12 -9 -16
  128 Y:\Documents\OTTD graphics\HEQS_build\Full HEQS\sprites\medium_trailers/end_dump_trailer_med_brown.pcx 210 15 09 20 26 -17 -7
  129 Y:\Documents\OTTD graphics\HEQS_build\Full HEQS\sprites\medium_trailers/end_dump_trailer_med_brown.pcx 242 15 01 16 36 -14 -6
  130 Y:\Documents\OTTD graphics\HEQS_build\Full HEQS\sprites\medium_trailers/end_dump_trailer_med_brown.pcx 290 15 09 20 26 -13 -10
  // Medium end dump - copper ore, loading
  131 Y:\Documents\OTTD graphics\HEQS_build\Full HEQS\sprites\medium_trailers/end_dump_trailer_med_red.pcx 34 15 01 24 12 -3 -10
  132 Y:\Documents\OTTD graphics\HEQS_build\Full HEQS\sprites\medium_trailers/end_dump_trailer_med_red.pcx 66 15 09 20 26 -11 -9
  133 Y:\Documents\OTTD graphics\HEQS_build\Full HEQS\sprites\medium_trailers/end_dump_trailer_med_red.pcx 98 15 01 16 36 -14 -6
  134 Y:\Documents\OTTD graphics\HEQS_build\Full HEQS\sprites\medium_trailers/end_dump_trailer_med_red.pcx 146 15 09 20 26 -9 -7
  135 Y:\Documents\OTTD graphics\HEQS_build\Full HEQS\sprites\medium_trailers/end_dump_trailer_med_red.pcx 178 15 01 24 12 -9 -16
  136 Y:\Documents\OTTD graphics\HEQS_build\Full HEQS\sprites\medium_trailers/end_dump_trailer_med_red.pcx 210 15 09 20 26 -17 -7
  137 Y:\Documents\OTTD graphics\HEQS_build\Full HEQS\sprites\medium_trailers/end_dump_trailer_med_red.pcx 242 15 01 16 36 -14 -6
  138 Y:\Documents\OTTD graphics\HEQS_build\Full HEQS\sprites\medium_trailers/end_dump_trailer_med_red.pcx 290 15 09 20 26 -13 -10
  // Medium end dump - copper ore, loaded
  139 Y:\Documents\OTTD graphics\HEQS_build\Full HEQS\sprites\medium_trailers/end_dump_trailer_med_red.pcx 34 15 01 24 12 -3 -10
  140 Y:\Documents\OTTD graphics\HEQS_build\Full HEQS\sprites\medium_trailers/end_dump_trailer_med_red.pcx 66 15 09 20 26 -11 -9
  141 Y:\Documents\OTTD graphics\HEQS_build\Full HEQS\sprites\medium_trailers/end_dump_trailer_med_red.pcx 98 15 01 16 36 -14 -6
  142 Y:\Documents\OTTD graphics\HEQS_build\Full HEQS\sprites\medium_trailers/end_dump_trailer_med_red.pcx 146 15 09 20 26 -9 -7
  143 Y:\Documents\OTTD graphics\HEQS_build\Full HEQS\sprites\medium_trailers/end_dump_trailer_med_red.pcx 178 15 01 24 12 -9 -16
  144 Y:\Documents\OTTD graphics\HEQS_build\Full HEQS\sprites\medium_trailers/end_dump_trailer_med_red.pcx 210 15 09 20 26 -17 -7
  145 Y:\Documents\OTTD graphics\HEQS_build\Full HEQS\sprites\medium_trailers/end_dump_trailer_med_red.pcx 242 15 01 16 36 -14 -6
  146 Y:\Documents\OTTD graphics\HEQS_build\Full HEQS\sprites\medium_trailers/end_dump_trailer_med_red.pcx 290 15 09 20 26 -13 -10
  // Medium end dump - sugar, loading
  147 Y:\Documents\OTTD graphics\HEQS_build\Full HEQS\sprites\medium_trailers/end_dump_trailer_med_white.pcx 34 15 01 24 12 -3 -10
  148 Y:\Documents\OTTD graphics\HEQS_build\Full HEQS\sprites\medium_trailers/end_dump_trailer_med_white.pcx 66 15 09 20 26 -11 -9
  149 Y:\Documents\OTTD graphics\HEQS_build\Full HEQS\sprites\medium_trailers/end_dump_trailer_med_white.pcx 98 15 01 16 36 -14 -6
  150 Y:\Documents\OTTD graphics\HEQS_build\Full HEQS\sprites\medium_trailers/end_dump_trailer_med_white.pcx 146 15 09 20 26 -9 -7
  151 Y:\Documents\OTTD graphics\HEQS_build\Full HEQS\sprites\medium_trailers/end_dump_trailer_med_white.pcx 178 15 01 24 12 -9 -16
  152 Y:\Documents\OTTD graphics\HEQS_build\Full HEQS\sprites\medium_trailers/end_dump_trailer_med_white.pcx 210 15 09 20 26 -17 -7
  153 Y:\Documents\OTTD graphics\HEQS_build\Full HEQS\sprites\medium_trailers/end_dump_trailer_med_white.pcx 242 15 01 16 36 -14 -6
  154 Y:\Documents\OTTD graphics\HEQS_build\Full HEQS\sprites\medium_trailers/end_dump_trailer_med_white.pcx 290 15 09 20 26 -13 -10
  // Medium end dump - sugar, loaded
  155 Y:\Documents\OTTD graphics\HEQS_build\Full HEQS\sprites\medium_trailers/end_dump_trailer_med_white.pcx 34 15 01 24 12 -3 -10
  156 Y:\Documents\OTTD graphics\HEQS_build\Full HEQS\sprites\medium_trailers/end_dump_trailer_med_white.pcx 66 15 09 20 26 -11 -9
  157 Y:\Documents\OTTD graphics\HEQS_build\Full HEQS\sprites\medium_trailers/end_dump_trailer_med_white.pcx 98 15 01 16 36 -14 -6
  158 Y:\Documents\OTTD graphics\HEQS_build\Full HEQS\sprites\medium_trailers/end_dump_trailer_med_white.pcx 146 15 09 20 26 -9 -7
  159 Y:\Documents\OTTD graphics\HEQS_build\Full HEQS\sprites\medium_trailers/end_dump_trailer_med_white.pcx 178 15 01 24 12 -9 -16
  160 Y:\Documents\OTTD graphics\HEQS_build\Full HEQS\sprites\medium_trailers/end_dump_trailer_med_white.pcx 210 15 09 20 26 -17 -7
  161 Y:\Documents\OTTD graphics\HEQS_build\Full HEQS\sprites\medium_trailers/end_dump_trailer_med_white.pcx 242 15 01 16 36 -14 -6
  162 Y:\Documents\OTTD graphics\HEQS_build\Full HEQS\sprites\medium_trailers/end_dump_trailer_med_white.pcx 290 15 09 20 26 -13 -10
  // Medium end dump - gravel, loading
  163 Y:\Documents\OTTD graphics\HEQS_build\Full HEQS\sprites\medium_trailers/end_dump_trailer_med_grey.pcx 34 15 01 24 12 -3 -10
  164 Y:\Documents\OTTD graphics\HEQS_build\Full HEQS\sprites\medium_trailers/end_dump_trailer_med_grey.pcx 66 15 09 20 26 -11 -9
  165 Y:\Documents\OTTD graphics\HEQS_build\Full HEQS\sprites\medium_trailers/end_dump_trailer_med_grey.pcx 98 15 01 16 36 -14 -6
  166 Y:\Documents\OTTD graphics\HEQS_build\Full HEQS\sprites\medium_trailers/end_dump_trailer_med_grey.pcx 146 15 09 20 26 -9 -7
  167 Y:\Documents\OTTD graphics\HEQS_build\Full HEQS\sprites\medium_trailers/end_dump_trailer_med_grey.pcx 178 15 01 24 12 -9 -16
  168 Y:\Documents\OTTD graphics\HEQS_build\Full HEQS\sprites\medium_trailers/end_dump_trailer_med_grey.pcx 210 15 09 20 26 -17 -7
  169 Y:\Documents\OTTD graphics\HEQS_build\Full HEQS\sprites\medium_trailers/end_dump_trailer_med_grey.pcx 242 15 01 16 36 -14 -6
  170 Y:\Documents\OTTD graphics\HEQS_build\Full HEQS\sprites\medium_trailers/end_dump_trailer_med_grey.pcx 290 15 09 20 26 -13 -10
  // Medium end dump - gravel, loaded
  171 Y:\Documents\OTTD graphics\HEQS_build\Full HEQS\sprites\medium_trailers/end_dump_trailer_med_grey.pcx 34 15 01 24 12 -3 -10
  172 Y:\Documents\OTTD graphics\HEQS_build\Full HEQS\sprites\medium_trailers/end_dump_trailer_med_grey.pcx 66 15 09 20 26 -11 -9
  173 Y:\Documents\OTTD graphics\HEQS_build\Full HEQS\sprites\medium_trailers/end_dump_trailer_med_grey.pcx 98 15 01 16 36 -14 -6
  174 Y:\Documents\OTTD graphics\HEQS_build\Full HEQS\sprites\medium_trailers/end_dump_trailer_med_grey.pcx 146 15 09 20 26 -9 -7
  175 Y:\Documents\OTTD graphics\HEQS_build\Full HEQS\sprites\medium_trailers/end_dump_trailer_med_grey.pcx 178 15 01 24 12 -9 -16
  176 Y:\Documents\OTTD graphics\HEQS_build\Full HEQS\sprites\medium_trailers/end_dump_trailer_med_grey.pcx 210 15 09 20 26 -17 -7
  177 Y:\Documents\OTTD graphics\HEQS_build\Full HEQS\sprites\medium_trailers/end_dump_trailer_med_grey.pcx 242 15 01 16 36 -14 -6
  178 Y:\Documents\OTTD graphics\HEQS_build\Full HEQS\sprites\medium_trailers/end_dump_trailer_med_grey.pcx 290 15 09 20 26 -13 -10
  // Medium end dump - ??, loading
  179 Y:\Documents\OTTD graphics\HEQS_build\Full HEQS\sprites\medium_trailers/end_dump_trailer_med.pcx 34 15 01 24 12 -3 -10
  180 Y:\Documents\OTTD graphics\HEQS_build\Full HEQS\sprites\medium_trailers/end_dump_trailer_med.pcx 66 15 09 20 26 -11 -9
  181 Y:\Documents\OTTD graphics\HEQS_build\Full HEQS\sprites\medium_trailers/end_dump_trailer_med.pcx 98 15 01 16 36 -14 -6
  182 Y:\Documents\OTTD graphics\HEQS_build\Full HEQS\sprites\medium_trailers/end_dump_trailer_med.pcx 146 15 09 20 26 -9 -7
  183 Y:\Documents\OTTD graphics\HEQS_build\Full HEQS\sprites\medium_trailers/end_dump_trailer_med.pcx 178 15 01 24 12 -9 -16
  184 Y:\Documents\OTTD graphics\HEQS_build\Full HEQS\sprites\medium_trailers/end_dump_trailer_med.pcx 210 15 09 20 26 -17 -7
  185 Y:\Documents\OTTD graphics\HEQS_build\Full HEQS\sprites\medium_trailers/end_dump_trailer_med.pcx 242 15 01 16 36 -14 -6
  186 Y:\Documents\OTTD graphics\HEQS_build\Full HEQS\sprites\medium_trailers/end_dump_trailer_med.pcx 290 15 09 20 26 -13 -10
  // Medium end dump - ??, loaded
  187 Y:\Documents\OTTD graphics\HEQS_build\Full HEQS\sprites\medium_trailers/end_dump_trailer_med.pcx 34 15 01 24 12 -3 -10
  188 Y:\Documents\OTTD graphics\HEQS_build\Full HEQS\sprites\medium_trailers/end_dump_trailer_med.pcx 66 15 09 20 26 -11 -9
  189 Y:\Documents\OTTD graphics\HEQS_build\Full HEQS\sprites\medium_trailers/end_dump_trailer_med.pcx 98 15 01 16 36 -14 -6
  190 Y:\Documents\OTTD graphics\HEQS_build\Full HEQS\sprites\medium_trailers/end_dump_trailer_med.pcx 146 15 09 20 26 -9 -7
  191 Y:\Documents\OTTD graphics\HEQS_build\Full HEQS\sprites\medium_trailers/end_dump_trailer_med.pcx 178 15 01 24 12 -9 -16
  192 Y:\Documents\OTTD graphics\HEQS_build\Full HEQS\sprites\medium_trailers/end_dump_trailer_med.pcx 210 15 09 20 26 -17 -7
  193 Y:\Documents\OTTD graphics\HEQS_build\Full HEQS\sprites\medium_trailers/end_dump_trailer_med.pcx 242 15 01 16 36 -14 -6
  194 Y:\Documents\OTTD graphics\HEQS_build\Full HEQS\sprites\medium_trailers/end_dump_trailer_med.pcx 290 15 09 20 26 -13 -10
  195 * 17	 02 01 08 03 03 00 00 01 00 02 00 00 00 01 00 02 00
  196 * 17	 02 01 01 03 03 00 00 03 00 04 00 00 00 03 00 04 00
  197 * 17	 02 01 06 03 03 00 00 05 00 06 00 00 00 05 00 06 00
  198 * 17	 02 01 0E 03 03 00 00 07 00 08 00 00 00 07 00 08 00
  199 * 17	 02 01 17 03 03 00 00 09 00 0A 00 00 00 09 00 0A 00
  200 * 17	 02 01 11 03 03 00 00 0B 00 0C 00 00 00 0B 00 0C 00
  201 * 17	 02 01 FF 03 03 00 00 0D 00 0E 00 00 00 0D 00 0E 00
  202 * 17	 02 01 15 03 03 00 00 0F 00 10 00 00 00 0F 00 10 00
  // Medium flat trailer / (also stake trailer ??)
  203 * 4	 01 01 12 08
  // Medium flat trailer - empty
  204 Y:\Documents\OTTD graphics\HEQS_build\Full HEQS\sprites\medium_trailers/flat_trailer_med.pcx 34 15 01 24 12 -3 -10
  205 Y:\Documents\OTTD graphics\HEQS_build\Full HEQS\sprites\medium_trailers/flat_trailer_med.pcx 66 15 09 20 26 -11 -9
  206 Y:\Documents\OTTD graphics\HEQS_build\Full HEQS\sprites\medium_trailers/flat_trailer_med.pcx 98 15 01 16 36 -14 -6
  207 Y:\Documents\OTTD graphics\HEQS_build\Full HEQS\sprites\medium_trailers/flat_trailer_med.pcx 146 15 09 20 26 -9 -7
  208 Y:\Documents\OTTD graphics\HEQS_build\Full HEQS\sprites\medium_trailers/flat_trailer_med.pcx 178 15 01 24 12 -9 -16
  209 Y:\Documents\OTTD graphics\HEQS_build\Full HEQS\sprites\medium_trailers/flat_trailer_med.pcx 210 15 09 20 26 -17 -7
  210 Y:\Documents\OTTD graphics\HEQS_build\Full HEQS\sprites\medium_trailers/flat_trailer_med.pcx 242 15 01 16 36 -14 -6
  211 Y:\Documents\OTTD graphics\HEQS_build\Full HEQS\sprites\medium_trailers/flat_trailer_med.pcx 290 15 09 20 26 -13 -10
  // Medium flat trailer - steel, loading  
  212 Y:\Documents\OTTD graphics\HEQS_build\Full HEQS\sprites\medium_trailers/flat_trailer_med_steel.pcx 34 15 01 24 12 -3 -10
  213 Y:\Documents\OTTD graphics\HEQS_build\Full HEQS\sprites\medium_trailers/flat_trailer_med_steel.pcx 66 15 09 20 26 -11 -9
  214 Y:\Documents\OTTD graphics\HEQS_build\Full HEQS\sprites\medium_trailers/flat_trailer_med_steel.pcx 98 15 01 16 36 -14 -6
  215 Y:\Documents\OTTD graphics\HEQS_build\Full HEQS\sprites\medium_trailers/flat_trailer_med_steel.pcx 146 15 09 20 26 -9 -7
  216 Y:\Documents\OTTD graphics\HEQS_build\Full HEQS\sprites\medium_trailers/flat_trailer_med_steel.pcx 178 15 01 24 12 -9 -16
  217 Y:\Documents\OTTD graphics\HEQS_build\Full HEQS\sprites\medium_trailers/flat_trailer_med_steel.pcx 210 15 09 20 26 -17 -7
  218 Y:\Documents\OTTD graphics\HEQS_build\Full HEQS\sprites\medium_trailers/flat_trailer_med_steel.pcx 242 15 01 16 36 -14 -6
  219 Y:\Documents\OTTD graphics\HEQS_build\Full HEQS\sprites\medium_trailers/flat_trailer_med_steel.pcx 290 15 09 20 26 -13 -10
  // Medium flat trailer - steel, loaded  
  220 Y:\Documents\OTTD graphics\HEQS_build\Full HEQS\sprites\medium_trailers/flat_trailer_med_steel.pcx 34 15 01 24 12 -3 -10
  221 Y:\Documents\OTTD graphics\HEQS_build\Full HEQS\sprites\medium_trailers/flat_trailer_med_steel.pcx 66 15 09 20 26 -11 -9
  222 Y:\Documents\OTTD graphics\HEQS_build\Full HEQS\sprites\medium_trailers/flat_trailer_med_steel.pcx 98 15 01 16 36 -14 -6
  223 Y:\Documents\OTTD graphics\HEQS_build\Full HEQS\sprites\medium_trailers/flat_trailer_med_steel.pcx 146 15 09 20 26 -9 -7
  224 Y:\Documents\OTTD graphics\HEQS_build\Full HEQS\sprites\medium_trailers/flat_trailer_med_steel.pcx 178 15 01 24 12 -9 -16
  225 Y:\Documents\OTTD graphics\HEQS_build\Full HEQS\sprites\medium_trailers/flat_trailer_med_steel.pcx 210 15 09 20 26 -17 -7
  226 Y:\Documents\OTTD graphics\HEQS_build\Full HEQS\sprites\medium_trailers/flat_trailer_med_steel.pcx 242 15 01 16 36 -14 -6
  227 Y:\Documents\OTTD graphics\HEQS_build\Full HEQS\sprites\medium_trailers/flat_trailer_med_steel.pcx 290 15 09 20 26 -13 -10
  // Medium flat trailer - paper, loading  
  228 Y:\Documents\OTTD graphics\HEQS_build\Full HEQS\sprites\medium_trailers/flat_trailer_med_paper.pcx 34 15 01 24 12 -3 -10
  229 Y:\Documents\OTTD graphics\HEQS_build\Full HEQS\sprites\medium_trailers/flat_trailer_med_paper.pcx 66 15 09 20 26 -11 -9
  230 Y:\Documents\OTTD graphics\HEQS_build\Full HEQS\sprites\medium_trailers/flat_trailer_med_paper.pcx 98 15 01 16 36 -14 -6
  231 Y:\Documents\OTTD graphics\HEQS_build\Full HEQS\sprites\medium_trailers/flat_trailer_med_paper.pcx 146 15 09 20 26 -9 -7
  232 Y:\Documents\OTTD graphics\HEQS_build\Full HEQS\sprites\medium_trailers/flat_trailer_med_paper.pcx 178 15 01 24 12 -9 -16
  233 Y:\Documents\OTTD graphics\HEQS_build\Full HEQS\sprites\medium_trailers/flat_trailer_med_paper.pcx 210 15 09 20 26 -17 -7
  234 Y:\Documents\OTTD graphics\HEQS_build\Full HEQS\sprites\medium_trailers/flat_trailer_med_paper.pcx 242 15 01 16 36 -14 -6
  235 Y:\Documents\OTTD graphics\HEQS_build\Full HEQS\sprites\medium_trailers/flat_trailer_med_paper.pcx 290 15 09 20 26 -13 -10
  // Medium flat trailer - paper, loaded  
  236 Y:\Documents\OTTD graphics\HEQS_build\Full HEQS\sprites\medium_trailers/flat_trailer_med_paper.pcx 34 15 01 24 12 -3 -10
  237 Y:\Documents\OTTD graphics\HEQS_build\Full HEQS\sprites\medium_trailers/flat_trailer_med_paper.pcx 66 15 09 20 26 -11 -9
  238 Y:\Documents\OTTD graphics\HEQS_build\Full HEQS\sprites\medium_trailers/flat_trailer_med_paper.pcx 98 15 01 16 36 -14 -6
  239 Y:\Documents\OTTD graphics\HEQS_build\Full HEQS\sprites\medium_trailers/flat_trailer_med_paper.pcx 146 15 09 20 26 -9 -7
  240 Y:\Documents\OTTD graphics\HEQS_build\Full HEQS\sprites\medium_trailers/flat_trailer_med_paper.pcx 178 15 01 24 12 -9 -16
  241 Y:\Documents\OTTD graphics\HEQS_build\Full HEQS\sprites\medium_trailers/flat_trailer_med_paper.pcx 210 15 09 20 26 -17 -7
  242 Y:\Documents\OTTD graphics\HEQS_build\Full HEQS\sprites\medium_trailers/flat_trailer_med_paper.pcx 242 15 01 16 36 -14 -6
  243 Y:\Documents\OTTD graphics\HEQS_build\Full HEQS\sprites\medium_trailers/flat_trailer_med.pcx 290 15 09 20 26 -13 -10
  // Medium stake trailer - empty
  244 Y:\Documents\OTTD graphics\HEQS_build\Full HEQS\sprites\medium_trailers/stake_trailer_med.pcx 34 15 01 24 12 -3 -10
  245 Y:\Documents\OTTD graphics\HEQS_build\Full HEQS\sprites\medium_trailers/stake_trailer_med.pcx 66 15 09 20 26 -11 -9
  246 Y:\Documents\OTTD graphics\HEQS_build\Full HEQS\sprites\medium_trailers/stake_trailer_med.pcx 98 15 01 16 36 -14 -6
  247 Y:\Documents\OTTD graphics\HEQS_build\Full HEQS\sprites\medium_trailers/stake_trailer_med.pcx 146 15 09 20 26 -9 -7
  248 Y:\Documents\OTTD graphics\HEQS_build\Full HEQS\sprites\medium_trailers/stake_trailer_med.pcx 178 15 01 24 12 -9 -16
  249 Y:\Documents\OTTD graphics\HEQS_build\Full HEQS\sprites\medium_trailers/stake_trailer_med.pcx 210 15 09 20 26 -17 -7
  250 Y:\Documents\OTTD graphics\HEQS_build\Full HEQS\sprites\medium_trailers/stake_trailer_med.pcx 242 15 01 16 36 -14 -6
  251 Y:\Documents\OTTD graphics\HEQS_build\Full HEQS\sprites\medium_trailers/stake_trailer_med.pcx 290 15 09 20 26 -13 -10
  // Medium stake trailer - wood, loading  
  252 Y:\Documents\OTTD graphics\HEQS_build\Full HEQS\sprites\medium_trailers/stake_trailer_med_logs.pcx 34 15 01 24 12 -3 -10
  253 Y:\Documents\OTTD graphics\HEQS_build\Full HEQS\sprites\medium_trailers/stake_trailer_med_logs.pcx 66 15 09 20 26 -11 -9
  254 Y:\Documents\OTTD graphics\HEQS_build\Full HEQS\sprites\medium_trailers/stake_trailer_med_logs.pcx 98 15 01 16 36 -14 -6
  255 Y:\Documents\OTTD graphics\HEQS_build\Full HEQS\sprites\medium_trailers/stake_trailer_med_logs.pcx 146 15 09 20 26 -9 -7
  256 Y:\Documents\OTTD graphics\HEQS_build\Full HEQS\sprites\medium_trailers/stake_trailer_med_logs.pcx 178 15 01 24 12 -9 -16
  257 Y:\Documents\OTTD graphics\HEQS_build\Full HEQS\sprites\medium_trailers/stake_trailer_med_logs.pcx 210 15 09 20 26 -17 -7
  258 Y:\Documents\OTTD graphics\HEQS_build\Full HEQS\sprites\medium_trailers/stake_trailer_med_logs.pcx 242 15 01 16 36 -14 -6
  259 Y:\Documents\OTTD graphics\HEQS_build\Full HEQS\sprites\medium_trailers/stake_trailer_med_logs.pcx 290 15 09 20 26 -13 -10
  // Medium stake trailer - wood, loaded  
  260 Y:\Documents\OTTD graphics\HEQS_build\Full HEQS\sprites\medium_trailers/stake_trailer_med_logs.pcx 34 15 01 24 12 -3 -10
  261 Y:\Documents\OTTD graphics\HEQS_build\Full HEQS\sprites\medium_trailers/stake_trailer_med_logs.pcx 66 15 09 20 26 -11 -9
  262 Y:\Documents\OTTD graphics\HEQS_build\Full HEQS\sprites\medium_trailers/stake_trailer_med_logs.pcx 98 15 01 16 36 -14 -6
  263 Y:\Documents\OTTD graphics\HEQS_build\Full HEQS\sprites\medium_trailers/stake_trailer_med_logs.pcx 146 15 09 20 26 -9 -7
  264 Y:\Documents\OTTD graphics\HEQS_build\Full HEQS\sprites\medium_trailers/stake_trailer_med_logs.pcx 178 15 01 24 12 -9 -16
  265 Y:\Documents\OTTD graphics\HEQS_build\Full HEQS\sprites\medium_trailers/stake_trailer_med_logs.pcx 210 15 09 20 26 -17 -7
  266 Y:\Documents\OTTD graphics\HEQS_build\Full HEQS\sprites\medium_trailers/stake_trailer_med_logs.pcx 242 15 01 16 36 -14 -6
  267 Y:\Documents\OTTD graphics\HEQS_build\Full HEQS\sprites\medium_trailers/stake_trailer_med_logs.pcx 290 15 09 20 26 -13 -10
 // Medium flat trailer - livestock, loading  
  268 Y:\Documents\OTTD graphics\HEQS_build\Full HEQS\sprites\medium_trailers/flat_trailer_med_livestock.pcx 34 15 01 24 12 -3 -10
  269 Y:\Documents\OTTD graphics\HEQS_build\Full HEQS\sprites\medium_trailers/flat_trailer_med_livestock.pcx 66 15 09 20 26 -11 -9
  270 Y:\Documents\OTTD graphics\HEQS_build\Full HEQS\sprites\medium_trailers/flat_trailer_med_livestock.pcx 98 15 01 16 36 -14 -6
  271 Y:\Documents\OTTD graphics\HEQS_build\Full HEQS\sprites\medium_trailers/flat_trailer_med_livestock.pcx 146 15 09 20 26 -9 -7
  272 Y:\Documents\OTTD graphics\HEQS_build\Full HEQS\sprites\medium_trailers/flat_trailer_med_livestock.pcx 178 15 01 24 12 -9 -16
  273 Y:\Documents\OTTD graphics\HEQS_build\Full HEQS\sprites\medium_trailers/flat_trailer_med_livestock.pcx 210 15 09 20 26 -17 -7
  274 Y:\Documents\OTTD graphics\HEQS_build\Full HEQS\sprites\medium_trailers/flat_trailer_med_livestock.pcx 242 15 01 16 36 -14 -6
  275 Y:\Documents\OTTD graphics\HEQS_build\Full HEQS\sprites\medium_trailers/flat_trailer_med_livestock.pcx 290 15 09 20 26 -13 -10
 // Medium flat trailer - livestock, loaded
  276 Y:\Documents\OTTD graphics\HEQS_build\Full HEQS\sprites\medium_trailers/flat_trailer_med_livestock.pcx 34 15 01 24 12 -3 -10
  277 Y:\Documents\OTTD graphics\HEQS_build\Full HEQS\sprites\medium_trailers/flat_trailer_med_livestock.pcx 66 15 09 20 26 -11 -9
  278 Y:\Documents\OTTD graphics\HEQS_build\Full HEQS\sprites\medium_trailers/flat_trailer_med_livestock.pcx 98 15 01 16 36 -14 -6
  279 Y:\Documents\OTTD graphics\HEQS_build\Full HEQS\sprites\medium_trailers/flat_trailer_med_livestock.pcx 146 15 09 20 26 -9 -7
  280 Y:\Documents\OTTD graphics\HEQS_build\Full HEQS\sprites\medium_trailers/flat_trailer_med_livestock.pcx 178 15 01 24 12 -9 -16
  281 Y:\Documents\OTTD graphics\HEQS_build\Full HEQS\sprites\medium_trailers/flat_trailer_med_livestock.pcx 210 15 09 20 26 -17 -7
  282 Y:\Documents\OTTD graphics\HEQS_build\Full HEQS\sprites\medium_trailers/flat_trailer_med_livestock.pcx 242 15 01 16 36 -14 -6
  283 Y:\Documents\OTTD graphics\HEQS_build\Full HEQS\sprites\medium_trailers/flat_trailer_med_livestock.pcx 290 15 09 20 26 -13 -10
 // Medium flat trailer - ??, loading  
  284 Y:\Documents\OTTD graphics\HEQS_build\Full HEQS\sprites\medium_trailers/flat_trailer_med.pcx 34 15 01 24 12 -3 -10
  285 Y:\Documents\OTTD graphics\HEQS_build\Full HEQS\sprites\medium_trailers/flat_trailer_med.pcx 66 15 09 20 26 -11 -9
  286 Y:\Documents\OTTD graphics\HEQS_build\Full HEQS\sprites\medium_trailers/flat_trailer_med.pcx 98 15 01 16 36 -14 -6
  287 Y:\Documents\OTTD graphics\HEQS_build\Full HEQS\sprites\medium_trailers/flat_trailer_med.pcx 146 15 09 20 26 -9 -7
  288 Y:\Documents\OTTD graphics\HEQS_build\Full HEQS\sprites\medium_trailers/flat_trailer_med.pcx 178 15 01 24 12 -9 -16
  289 Y:\Documents\OTTD graphics\HEQS_build\Full HEQS\sprites\medium_trailers/flat_trailer_med.pcx 210 15 09 20 26 -17 -7
  290 Y:\Documents\OTTD graphics\HEQS_build\Full HEQS\sprites\medium_trailers/flat_trailer_med.pcx 242 15 01 16 36 -14 -6
  291 Y:\Documents\OTTD graphics\HEQS_build\Full HEQS\sprites\medium_trailers/flat_trailer_med.pcx 290 15 09 20 26 -13 -10
 // Medium flat trailer - ??, loaded  
  292 Y:\Documents\OTTD graphics\HEQS_build\Full HEQS\sprites\medium_trailers/flat_trailer_med.pcx 34 15 01 24 12 -3 -10
  293 Y:\Documents\OTTD graphics\HEQS_build\Full HEQS\sprites\medium_trailers/flat_trailer_med.pcx 66 15 09 20 26 -11 -9
  294 Y:\Documents\OTTD graphics\HEQS_build\Full HEQS\sprites\medium_trailers/flat_trailer_med.pcx 98 15 01 16 36 -14 -6
  295 Y:\Documents\OTTD graphics\HEQS_build\Full HEQS\sprites\medium_trailers/flat_trailer_med.pcx 146 15 09 20 26 -9 -7
  296 Y:\Documents\OTTD graphics\HEQS_build\Full HEQS\sprites\medium_trailers/flat_trailer_med.pcx 178 15 01 24 12 -9 -16
  297 Y:\Documents\OTTD graphics\HEQS_build\Full HEQS\sprites\medium_trailers/flat_trailer_med.pcx 210 15 09 20 26 -17 -7
  298 Y:\Documents\OTTD graphics\HEQS_build\Full HEQS\sprites\medium_trailers/flat_trailer_med.pcx 242 15 01 16 36 -14 -6
  299 Y:\Documents\OTTD graphics\HEQS_build\Full HEQS\sprites\medium_trailers/flat_trailer_med.pcx 290 15 09 20 26 -13 -10
 // Medium flat trailer(s) - various toyland crap  
  300 Y:\Documents\OTTD graphics\HEQS_build\Full HEQS\sprites/heqs2.pcx 338 360 01 18 8 -3 -10
  301 Y:\Documents\OTTD graphics\HEQS_build\Full HEQS\sprites/heqs2.pcx 354 360 09 16 20 -14 -7
  302 Y:\Documents\OTTD graphics\HEQS_build\Full HEQS\sprites/heqs2.pcx 386 360 01 12 28 -14 -6
  303 Y:\Documents\OTTD graphics\HEQS_build\Full HEQS\sprites/heqs2.pcx 434 360 09 16 20 -6 -8
  304 Y:\Documents\OTTD graphics\HEQS_build\Full HEQS\sprites/heqs2.pcx 466 360 01 18 8 -3 -10
  305 Y:\Documents\OTTD graphics\HEQS_build\Full HEQS\sprites/heqs2.pcx 482 360 09 16 20 -14 -8
  306 Y:\Documents\OTTD graphics\HEQS_build\Full HEQS\sprites/heqs2.pcx 514 360 01 12 28 -14 -6
  307 Y:\Documents\OTTD graphics\HEQS_build\Full HEQS\sprites/heqs2.pcx 562 360 09 16 20 -6 -7
  308 Y:\Documents\OTTD graphics\HEQS_build\Full HEQS\sprites/heqs2.pcx 594 360 01 18 8 -3 -10
  309 Y:\Documents\OTTD graphics\HEQS_build\Full HEQS\sprites/heqs2.pcx 610 360 09 16 20 -14 -7
  310 Y:\Documents\OTTD graphics\HEQS_build\Full HEQS\sprites/heqs2.pcx 642 360 01 12 28 -14 -6
  311 Y:\Documents\OTTD graphics\HEQS_build\Full HEQS\sprites/heqs2.pcx 690 360 09 16 20 -6 -8
  312 Y:\Documents\OTTD graphics\HEQS_build\Full HEQS\sprites/heqs2.pcx 722 360 01 18 8 -3 -10
  313 Y:\Documents\OTTD graphics\HEQS_build\Full HEQS\sprites/heqs2.pcx 738 360 09 16 20 -14 -8
  314 Y:\Documents\OTTD graphics\HEQS_build\Full HEQS\sprites/heqs2.pcx 2 392 01 12 28 -14 -6
  315 Y:\Documents\OTTD graphics\HEQS_build\Full HEQS\sprites/heqs2.pcx 50 392 09 16 20 -6 -7
  316 Y:\Documents\OTTD graphics\HEQS_build\Full HEQS\sprites/heqs2.pcx 82 392 01 18 8 -3 -10
  317 Y:\Documents\OTTD graphics\HEQS_build\Full HEQS\sprites/heqs2.pcx 98 392 09 16 20 -14 -7
  318 Y:\Documents\OTTD graphics\HEQS_build\Full HEQS\sprites/heqs2.pcx 130 392 01 12 28 -14 -6
  319 Y:\Documents\OTTD graphics\HEQS_build\Full HEQS\sprites/heqs2.pcx 178 392 09 16 20 -6 -8
  320 Y:\Documents\OTTD graphics\HEQS_build\Full HEQS\sprites/heqs2.pcx 210 392 01 18 8 -3 -10
  321 Y:\Documents\OTTD graphics\HEQS_build\Full HEQS\sprites/heqs2.pcx 226 392 09 16 20 -14 -8
  322 Y:\Documents\OTTD graphics\HEQS_build\Full HEQS\sprites/heqs2.pcx 258 392 01 12 28 -14 -6
  323 Y:\Documents\OTTD graphics\HEQS_build\Full HEQS\sprites/heqs2.pcx 306 392 09 16 20 -6 -7
  324 Y:\Documents\OTTD graphics\HEQS_build\Full HEQS\sprites/heqs2.pcx 338 392 01 18 8 -3 -10
  325 Y:\Documents\OTTD graphics\HEQS_build\Full HEQS\sprites/heqs2.pcx 354 392 09 16 20 -14 -7
  326 Y:\Documents\OTTD graphics\HEQS_build\Full HEQS\sprites/heqs2.pcx 386 392 01 12 28 -14 -6
  327 Y:\Documents\OTTD graphics\HEQS_build\Full HEQS\sprites/heqs2.pcx 434 392 09 16 20 -6 -8
  328 Y:\Documents\OTTD graphics\HEQS_build\Full HEQS\sprites/heqs2.pcx 466 392 01 18 8 -3 -10
  329 Y:\Documents\OTTD graphics\HEQS_build\Full HEQS\sprites/heqs2.pcx 482 392 09 16 20 -14 -8
  330 Y:\Documents\OTTD graphics\HEQS_build\Full HEQS\sprites/heqs2.pcx 514 392 01 12 28 -14 -6
  331 Y:\Documents\OTTD graphics\HEQS_build\Full HEQS\sprites/heqs2.pcx 562 392 09 16 20 -6 -7
  332 Y:\Documents\OTTD graphics\HEQS_build\Full HEQS\sprites/heqs2.pcx 594 392 01 18 8 -3 -10
  333 Y:\Documents\OTTD graphics\HEQS_build\Full HEQS\sprites/heqs2.pcx 610 392 09 16 20 -14 -7
  334 Y:\Documents\OTTD graphics\HEQS_build\Full HEQS\sprites/heqs2.pcx 642 392 01 12 28 -14 -6
  335 Y:\Documents\OTTD graphics\HEQS_build\Full HEQS\sprites/heqs2.pcx 690 392 09 16 20 -6 -8
  336 Y:\Documents\OTTD graphics\HEQS_build\Full HEQS\sprites/heqs2.pcx 722 392 01 18 8 -3 -10
  337 Y:\Documents\OTTD graphics\HEQS_build\Full HEQS\sprites/heqs2.pcx 738 392 09 16 20 -14 -8
  338 Y:\Documents\OTTD graphics\HEQS_build\Full HEQS\sprites/heqs2.pcx 2 424 01 12 28 -14 -6
  339 Y:\Documents\OTTD graphics\HEQS_build\Full HEQS\sprites/heqs2.pcx 50 424 09 16 20 -6 -7
  340 Y:\Documents\OTTD graphics\HEQS_build\Full HEQS\sprites/heqs2.pcx 82 424 01 18 8 -3 -10
  341 Y:\Documents\OTTD graphics\HEQS_build\Full HEQS\sprites/heqs2.pcx 98 424 09 16 20 -14 -7
  342 Y:\Documents\OTTD graphics\HEQS_build\Full HEQS\sprites/heqs2.pcx 130 424 01 12 28 -14 -6
  343 Y:\Documents\OTTD graphics\HEQS_build\Full HEQS\sprites/heqs2.pcx 178 424 09 16 20 -6 -8
  344 Y:\Documents\OTTD graphics\HEQS_build\Full HEQS\sprites/heqs2.pcx 210 424 01 18 8 -3 -10
  345 Y:\Documents\OTTD graphics\HEQS_build\Full HEQS\sprites/heqs2.pcx 226 424 09 16 20 -14 -8
  346 Y:\Documents\OTTD graphics\HEQS_build\Full HEQS\sprites/heqs2.pcx 258 424 01 12 28 -14 -6
  347 Y:\Documents\OTTD graphics\HEQS_build\Full HEQS\sprites/heqs2.pcx 306 424 09 16 20 -6 -7
  348 * 17	 02 01 09 03 03 00 00 01 00 02 00 00 00 01 00 02 00
  349 * 17	 02 01 0B 03 03 00 00 03 00 04 00 00 00 03 00 04 00
  350 * 17	 02 01 07 03 03 05 00 06 00 07 00 05 00 06 00 07 00
  351 * 17	 02 01 04 03 03 00 00 07 00 08 00 00 00 07 00 08 00
  352 * 17	 02 01 18 03 03 00 00 09 00 0A 00 00 00 09 00 0A 00
  353 * 17	 02 01 1A 03 03 00 00 0B 00 0C 00 00 00 0B 00 0C 00
//!!Warning (94): Redefining ID FF not used since previous definition at sprite 201.
  354 * 17	 02 01 FF 03 03 00 00 0D 00 0E 00 00 00 0D 00 0E 00
  355 * 17	 02 01 13 03 03 00 00 0F 00 10 00 00 00 0F 00 10 00
  // Medium tank trailer
//!!Warning (97): Set 11 defined by the previous Action 1 (sprite 203) has not been used.
  356 * 4	 01 01 01 08
  357 Y:\Documents\OTTD graphics\HEQS_build\Full HEQS\sprites\medium_trailers/tank_trailer_med.pcx 34 15 01 24 12 -3 -10
  358 Y:\Documents\OTTD graphics\HEQS_build\Full HEQS\sprites\medium_trailers/tank_trailer_med.pcx 66 15 09 20 26 -11 -9
  359 Y:\Documents\OTTD graphics\HEQS_build\Full HEQS\sprites\medium_trailers/tank_trailer_med.pcx 98 15 01 16 36 -14 -6
  360 Y:\Documents\OTTD graphics\HEQS_build\Full HEQS\sprites\medium_trailers/tank_trailer_med.pcx 146 15 09 20 26 -9 -7
  361 Y:\Documents\OTTD graphics\HEQS_build\Full HEQS\sprites\medium_trailers/tank_trailer_med.pcx 178 15 01 24 12 -9 -16
  362 Y:\Documents\OTTD graphics\HEQS_build\Full HEQS\sprites\medium_trailers/tank_trailer_med.pcx 210 15 09 20 26 -17 -7
  363 Y:\Documents\OTTD graphics\HEQS_build\Full HEQS\sprites\medium_trailers/tank_trailer_med.pcx 242 15 01 16 36 -14 -6
  364 Y:\Documents\OTTD graphics\HEQS_build\Full HEQS\sprites\medium_trailers/tank_trailer_med.pcx 290 15 09 20 26 -13 -10
  365 * 9	 02 01 03 01 01 00 00 00 00
  366 * 4	 01 01 01 08
  367 Y:\Documents\OTTD graphics\HEQS_build\Full HEQS\sprites/heqs2.pcx 770 424 01 18 8 -3 -10
  368 Y:\Documents\OTTD graphics\HEQS_build\Full HEQS\sprites/heqs2.pcx 2 456 09 16 20 -14 -7
  369 Y:\Documents\OTTD graphics\HEQS_build\Full HEQS\sprites/heqs2.pcx 34 456 01 12 28 -14 -6
  370 Y:\Documents\OTTD graphics\HEQS_build\Full HEQS\sprites/heqs2.pcx 82 456 09 16 20 -6 -8
  371 Y:\Documents\OTTD graphics\HEQS_build\Full HEQS\sprites/heqs2.pcx 114 456 01 18 8 -3 -10
  372 Y:\Documents\OTTD graphics\HEQS_build\Full HEQS\sprites/heqs2.pcx 130 456 09 16 20 -14 -8
  373 Y:\Documents\OTTD graphics\HEQS_build\Full HEQS\sprites/heqs2.pcx 162 456 01 12 28 -14 -6
  374 Y:\Documents\OTTD graphics\HEQS_build\Full HEQS\sprites/heqs2.pcx 210 456 09 16 20 -6 -7
  375 * 9	 02 01 0C 01 01 00 00 00 00
//!!Error (62): Offset 6: ID 00 has not been defined.
//!!Error (62): Offset 12: ID 02 has not been defined.
//!!Warning (100): Default ID appears earlier in sprite.
//!!Warning (100): Default ID appears earlier in sprite.
//!!Warning (100): Default ID appears earlier in sprite.
  376 * 103	 03 01 01 00 20 00 00 00 01 01 00 02 02 00 03 03 00 04 04 00 05 05 00 06 06 00 07 07 00 08 08 00
	 09 09 00 0A 0A 00 0B 0B 00 0C 0C 00 0D 0C 00 0E 0E 00 0F 03 00 10 03 00 11 11 00 12 05 00 13 13
	 00 14 05 00 15 15 00 16 03 00 17 17 00 18 18 00 19 03 00 1A 1A 00 1B 06 00 1C 0A 00 1D 06 00 1E
	 07 00 1F 0A 00 05 00

   // ------------ end of Medium Trailers ------------------ //

  // -------------- Belly Dump / Logging Trailers --------------- //
   // Small belly dump trailer / Large log trailer 
  377 * 67	 00 01 19 01 05
    00 00 00  // intro date 
    02 20     // reliability 
    03 11     // vehicle life 
    04 23     // class life 
    06 00     // climate 
    07 05     // load amount 
    08 80     // speed in mph * 3.2
    09 1E     // running cost factor 
    0A 48 4C 00 00 13 00 14 20        // running cost base 
    0E FF     // sprite ID
    0F \b65     // capacity
    10 FF     // cargo type
    11 34     // cost factor
    12 17     // sound effect
    15 20     // speed in mph * 0.8
    16 C0 20 00 68     // Bit mask of cargo types available for refitting
    // flips 1D / 1E values: excludes fruit, grain, wheat, maize; includes wood, tropical wood
    17 16     // Callback flags bit mask
    1A 00     // Refit cost, using 25% of the purchase price cost base
    1B 00     // Retire vehicle early, this many years before the end of phase 2
    1C 02     // Miscellaneous vehicle flags
    1D 10 00          // Refittable cargo classes
    1E 00 00         // Non-refittable cargo classes
    1F 60 B3 0A 00    // Long format introduction date  
  378 * 6	 07 83 01 \7! 02 01 // tropic only
  379 * 7	 00 01 01 01 05 10 08// copper ore default
  380 * 42	 04 01 7F 01 05 "Small Belly Dump / Large Log Trailer" 00
  381 * 4	 01 01 05 08 
  // Small Belly dump empty
  382 Y:\Documents\OTTD graphics\HEQS_build\Full HEQS\sprites\belly_dump_trailers/belly_dump_trailer_small.pcx 34 10 01 24 12 -5 -16
  383 Y:\Documents\OTTD graphics\HEQS_build\Full HEQS\sprites\belly_dump_trailers/belly_dump_trailer_small.pcx 66 10 09 20 26 -8 -11
  384 Y:\Documents\OTTD graphics\HEQS_build\Full HEQS\sprites\belly_dump_trailers/belly_dump_trailer_small.pcx 98 10 01 16 36 -6 -10
  385 Y:\Documents\OTTD graphics\HEQS_build\Full HEQS\sprites\belly_dump_trailers/belly_dump_trailer_small.pcx 146 10 09 20 26 -10 -9
  386 Y:\Documents\OTTD graphics\HEQS_build\Full HEQS\sprites\belly_dump_trailers/belly_dump_trailer_small.pcx 178 10 01 24 12 -7 -17
  387 Y:\Documents\OTTD graphics\HEQS_build\Full HEQS\sprites\belly_dump_trailers/belly_dump_trailer_small.pcx 210 10 09 20 26 -17 -9
  388 Y:\Documents\OTTD graphics\HEQS_build\Full HEQS\sprites\belly_dump_trailers/belly_dump_trailer_small.pcx 242 10 01 16 36 -22 -10
  389 Y:\Documents\OTTD graphics\HEQS_build\Full HEQS\sprites\belly_dump_trailers/belly_dump_trailer_small.pcx 290 10 09 20 26 -13 -12
  // Small Belly Dump - coal loading
  390 Y:\Documents\OTTD graphics\HEQS_build\Full HEQS\sprites\belly_dump_trailers/belly_dump_trailer_small_coal.pcx 34 10 01 24 12 -5 -16
  391 Y:\Documents\OTTD graphics\HEQS_build\Full HEQS\sprites\belly_dump_trailers/belly_dump_trailer_small_coal.pcx 66 10 09 20 26 -8 -11
  392 Y:\Documents\OTTD graphics\HEQS_build\Full HEQS\sprites\belly_dump_trailers/belly_dump_trailer_small_coal.pcx 98 10 01 16 36 -6 -10
  393 Y:\Documents\OTTD graphics\HEQS_build\Full HEQS\sprites\belly_dump_trailers/belly_dump_trailer_small_coal.pcx 146 10 09 20 26 -10 -9
  394 Y:\Documents\OTTD graphics\HEQS_build\Full HEQS\sprites\belly_dump_trailers/belly_dump_trailer_small_coal.pcx 178 10 01 24 12 -7 -17
  395 Y:\Documents\OTTD graphics\HEQS_build\Full HEQS\sprites\belly_dump_trailers/belly_dump_trailer_small_coal.pcx 210 10 09 20 26 -17 -9
  396 Y:\Documents\OTTD graphics\HEQS_build\Full HEQS\sprites\belly_dump_trailers/belly_dump_trailer_small_coal.pcx 242 10 01 16 36 -22 -10
  397 Y:\Documents\OTTD graphics\HEQS_build\Full HEQS\sprites\belly_dump_trailers/belly_dump_trailer_small_coal.pcx 290 10 09 20 26 -13 -12
  // Small Belly Dump - coal loaded
  398 Y:\Documents\OTTD graphics\HEQS_build\Full HEQS\sprites\belly_dump_trailers/belly_dump_trailer_small_coal.pcx 34 10 01 24 12 -5 -16
  399 Y:\Documents\OTTD graphics\HEQS_build\Full HEQS\sprites\belly_dump_trailers/belly_dump_trailer_small_coal.pcx 66 10 09 20 26 -8 -11
  400 Y:\Documents\OTTD graphics\HEQS_build\Full HEQS\sprites\belly_dump_trailers/belly_dump_trailer_small_coal.pcx 98 10 01 16 36 -6 -10
  401 Y:\Documents\OTTD graphics\HEQS_build\Full HEQS\sprites\belly_dump_trailers/belly_dump_trailer_small_coal.pcx 146 10 09 20 26 -10 -9
  402 Y:\Documents\OTTD graphics\HEQS_build\Full HEQS\sprites\belly_dump_trailers/belly_dump_trailer_small_coal.pcx 178 10 01 24 12 -7 -17
  403 Y:\Documents\OTTD graphics\HEQS_build\Full HEQS\sprites\belly_dump_trailers/belly_dump_trailer_small_coal.pcx 210 10 09 20 26 -17 -9
  404 Y:\Documents\OTTD graphics\HEQS_build\Full HEQS\sprites\belly_dump_trailers/belly_dump_trailer_small_coal.pcx 242 10 01 16 36 -22 -10
  405 Y:\Documents\OTTD graphics\HEQS_build\Full HEQS\sprites\belly_dump_trailers/belly_dump_trailer_small_coal.pcx 290 10 09 20 26 -13 -12
  // Small Belly Dump - iron loading
  406 Y:\Documents\OTTD graphics\HEQS_build\Full HEQS\sprites\belly_dump_trailers/belly_dump_trailer_small_iron.pcx 34 10 01 24 12 -5 -16
  407 Y:\Documents\OTTD graphics\HEQS_build\Full HEQS\sprites\belly_dump_trailers/belly_dump_trailer_small_iron.pcx 66 10 09 20 26 -8 -11
  408 Y:\Documents\OTTD graphics\HEQS_build\Full HEQS\sprites\belly_dump_trailers/belly_dump_trailer_small_iron.pcx 98 10 01 16 36 -6 -10
  409 Y:\Documents\OTTD graphics\HEQS_build\Full HEQS\sprites\belly_dump_trailers/belly_dump_trailer_small_iron.pcx 146 10 09 20 26 -10 -9
  410 Y:\Documents\OTTD graphics\HEQS_build\Full HEQS\sprites\belly_dump_trailers/belly_dump_trailer_small_iron.pcx 178 10 01 24 12 -7 -17
  411 Y:\Documents\OTTD graphics\HEQS_build\Full HEQS\sprites\belly_dump_trailers/belly_dump_trailer_small_iron.pcx 210 10 09 20 26 -17 -9
  412 Y:\Documents\OTTD graphics\HEQS_build\Full HEQS\sprites\belly_dump_trailers/belly_dump_trailer_small_iron.pcx 242 10 01 16 36 -22 -10
  413 Y:\Documents\OTTD graphics\HEQS_build\Full HEQS\sprites\belly_dump_trailers/belly_dump_trailer_small_iron.pcx 290 10 09 20 26 -13 -12
  // Small Belly Dump - iron loaded
  414 Y:\Documents\OTTD graphics\HEQS_build\Full HEQS\sprites\belly_dump_trailers/belly_dump_trailer_small_iron.pcx 34 10 01 24 12 -5 -16
  415 Y:\Documents\OTTD graphics\HEQS_build\Full HEQS\sprites\belly_dump_trailers/belly_dump_trailer_small_iron.pcx 66 10 09 20 26 -8 -11
  416 Y:\Documents\OTTD graphics\HEQS_build\Full HEQS\sprites\belly_dump_trailers/belly_dump_trailer_small_iron.pcx 98 10 01 16 36 -6 -10
  417 Y:\Documents\OTTD graphics\HEQS_build\Full HEQS\sprites\belly_dump_trailers/belly_dump_trailer_small_iron.pcx 146 10 09 20 26 -10 -9
  418 Y:\Documents\OTTD graphics\HEQS_build\Full HEQS\sprites\belly_dump_trailers/belly_dump_trailer_small_iron.pcx 178 10 01 24 12 -7 -17
  419 Y:\Documents\OTTD graphics\HEQS_build\Full HEQS\sprites\belly_dump_trailers/belly_dump_trailer_small_iron.pcx 210 10 09 20 26 -17 -9
  420 Y:\Documents\OTTD graphics\HEQS_build\Full HEQS\sprites\belly_dump_trailers/belly_dump_trailer_small_iron.pcx 242 10 01 16 36 -22 -10
  421 Y:\Documents\OTTD graphics\HEQS_build\Full HEQS\sprites\belly_dump_trailers/belly_dump_trailer_small_iron.pcx 290 10 09 20 26 -13 -12
  422 * 9	 02 01 AA //normal action2 defining graphics with no loading/loaded stages 
      01 // number loading states
      01 // number loaded states
      00 00 // loading sprites
      00 00 // moving sprites
  423 * 17	 02 01 01  // action 2 coal
      03 // number loading states
      03 // number loaded states
      00 00 01 00 02 00 // loading sprites
      00 00 01 00 02 00 // moving sprites
  424 * 17	 02 01 08  // action 2 iron
      03 // number loading states
      03 // number loaded states
      00 00 03 00 04 00 // loading sprites
      00 00 03 00 04 00 // moving sprites
  425 * 4	 01 01 03 08 
  // Large Log Trailer - empty
  426 Y:\Documents\OTTD graphics\HEQS_build\Full HEQS\sprites\log_trailers/large_single_log_trailer.pcx 34 10 01 24 12 -5 -16
  427 Y:\Documents\OTTD graphics\HEQS_build\Full HEQS\sprites\log_trailers/large_single_log_trailer.pcx 66 10 09 20 26 -8 -11
  428 Y:\Documents\OTTD graphics\HEQS_build\Full HEQS\sprites\log_trailers/large_single_log_trailer.pcx 98 10 01 16 36 -6 -10
  429 Y:\Documents\OTTD graphics\HEQS_build\Full HEQS\sprites\log_trailers/large_single_log_trailer.pcx 146 10 09 20 26 -10 -9
  430 Y:\Documents\OTTD graphics\HEQS_build\Full HEQS\sprites\log_trailers/large_single_log_trailer.pcx 178 10 01 24 12 -7 -17
  431 Y:\Documents\OTTD graphics\HEQS_build\Full HEQS\sprites\log_trailers/large_single_log_trailer.pcx 210 10 09 20 26 -17 -9
  432 Y:\Documents\OTTD graphics\HEQS_build\Full HEQS\sprites\log_trailers/large_single_log_trailer.pcx 242 10 01 16 36 -22 -10
  433 Y:\Documents\OTTD graphics\HEQS_build\Full HEQS\sprites\log_trailers/large_single_log_trailer.pcx 290 10 09 20 26 -13 -12
  // Large Log Trailer - loading
  434 Y:\Documents\OTTD graphics\HEQS_build\Full HEQS\sprites\log_trailers/large_single_log_trailer_loaded.pcx 34 10 01 24 12 -5 -16
  435 Y:\Documents\OTTD graphics\HEQS_build\Full HEQS\sprites\log_trailers/large_single_log_trailer_loaded.pcx 66 10 09 20 26 -8 -11
  436 Y:\Documents\OTTD graphics\HEQS_build\Full HEQS\sprites\log_trailers/large_single_log_trailer_loaded.pcx 98 10 01 16 36 -6 -10
  437 Y:\Documents\OTTD graphics\HEQS_build\Full HEQS\sprites\log_trailers/large_single_log_trailer_loaded.pcx 146 10 09 20 26 -10 -9
  438 Y:\Documents\OTTD graphics\HEQS_build\Full HEQS\sprites\log_trailers/large_single_log_trailer_loaded.pcx 178 10 01 24 12 -7 -17
  439 Y:\Documents\OTTD graphics\HEQS_build\Full HEQS\sprites\log_trailers/large_single_log_trailer_loaded.pcx 210 10 09 20 26 -17 -9
  440 Y:\Documents\OTTD graphics\HEQS_build\Full HEQS\sprites\log_trailers/large_single_log_trailer_loaded.pcx 242 10 01 16 36 -22 -10
  441 Y:\Documents\OTTD graphics\HEQS_build\Full HEQS\sprites\log_trailers/large_single_log_trailer_loaded.pcx 290 10 09 20 26 -13 -12
  // Large Log Trailer - loaded
  442 Y:\Documents\OTTD graphics\HEQS_build\Full HEQS\sprites\log_trailers/large_single_log_trailer_loaded.pcx 34 10 01 24 12 -5 -16
  443 Y:\Documents\OTTD graphics\HEQS_build\Full HEQS\sprites\log_trailers/large_single_log_trailer_loaded.pcx 66 10 09 20 26 -8 -11
  444 Y:\Documents\OTTD graphics\HEQS_build\Full HEQS\sprites\log_trailers/large_single_log_trailer_loaded.pcx 98 10 01 16 36 -6 -10
  445 Y:\Documents\OTTD graphics\HEQS_build\Full HEQS\sprites\log_trailers/large_single_log_trailer_loaded.pcx 146 10 09 20 26 -10 -9
  446 Y:\Documents\OTTD graphics\HEQS_build\Full HEQS\sprites\log_trailers/large_single_log_trailer_loaded.pcx 178 10 01 24 12 -7 -17
  447 Y:\Documents\OTTD graphics\HEQS_build\Full HEQS\sprites\log_trailers/large_single_log_trailer_loaded.pcx 210 10 09 20 26 -17 -9
  448 Y:\Documents\OTTD graphics\HEQS_build\Full HEQS\sprites\log_trailers/large_single_log_trailer_loaded.pcx 242 10 01 16 36 -22 -10
  449 Y:\Documents\OTTD graphics\HEQS_build\Full HEQS\sprites\log_trailers/large_single_log_trailer_loaded.pcx 290 10 09 20 26 -13 -12
  450 * 17	 02 01 07  // action 2 wood
      03 // number loading states
      03 // number loaded states
      00 00 01 00 02 00 // loading sprites
      00 00 01 00 02 00 // moving sprites
  451 * 16	 03   // Action 3
      01  // RV 
      01  // Number of vehicles this action associate graphics with 
      05   // Vehicle ID
      03   // Number of different cargo types to support  
      01   // Coal
      01 00   // Action 2 ID for coal
      07   // Wood
      07 00   // Action 2 ID for coal
      08   // Iron
      08 00   // Action 2 ID for iron
      AA 00


   // Medium belly dump trailer
  452 * 67	 00 01 19 01 06
    00 00 00  // intro date 
    02 20     // reliability 
    03 11     // vehicle life 
    04 23     // class life 
    06 00     // climate 
    07 05     // load amount 
    08 80     // speed in mph * 3.2
    09 1E     // running cost factor 
    0A 48 4C 00 00 13 14 14 18        // running cost base 
    0E FF     // sprite ID
    0F \b90     // capacity
    10 FF     // cargo type
    11 34     // cost factor
    12 17     // sound effect
    15 20     // speed in mph * 0.8
    16 40 00 00 00     // Bit mask of cargo types available for refitting
    17 16     // Callback flags bit mask
    1A 00     // Refit cost, using 25% of the purchase price cost base
    1B 00     // Retire vehicle early, this many years before the end of phase 2
    1C 02     // Miscellaneous vehicle flags
    1D 10 00          // Refittable cargo classes
    1E 00 00          // Non-refittable cargo classes
    1F 60 B3 0A 00    // Long format introduction date  
  453 * 6	 07 83 01 \7! 02 01 // tropic only
  454 * 7	 00 01 01 01 06 10 08// copper ore default
  455 * 23	 04 01 7F 01 06 "Medium Belly Dump" 00
  // Small Belly dump empty
  456 * 4	 01 01 01 08 
  457 Y:\Documents\OTTD graphics\HEQS_build\Full HEQS\sprites\belly_dump_trailers/belly_dump_trailer_small.pcx 34 10 01 24 12 -5 -16
  458 Y:\Documents\OTTD graphics\HEQS_build\Full HEQS\sprites\belly_dump_trailers/belly_dump_trailer_small.pcx 66 10 09 20 26 -8 -11
  459 Y:\Documents\OTTD graphics\HEQS_build\Full HEQS\sprites\belly_dump_trailers/belly_dump_trailer_small.pcx 98 10 01 16 36 -6 -10
  460 Y:\Documents\OTTD graphics\HEQS_build\Full HEQS\sprites\belly_dump_trailers/belly_dump_trailer_small.pcx 146 10 09 20 26 -10 -9
  461 Y:\Documents\OTTD graphics\HEQS_build\Full HEQS\sprites\belly_dump_trailers/belly_dump_trailer_small.pcx 178 10 01 24 12 -7 -17
  462 Y:\Documents\OTTD graphics\HEQS_build\Full HEQS\sprites\belly_dump_trailers/belly_dump_trailer_small.pcx 210 10 09 20 26 -17 -9
  463 Y:\Documents\OTTD graphics\HEQS_build\Full HEQS\sprites\belly_dump_trailers/belly_dump_trailer_small.pcx 242 10 01 16 36 -22 -10
  464 Y:\Documents\OTTD graphics\HEQS_build\Full HEQS\sprites\belly_dump_trailers/belly_dump_trailer_small.pcx 290 10 09 20 26 -13 -12
  465 * 9	 02 01 AA //normal action2 defining graphics with no loading/loaded stages 
      01 // number loading states
      01 // number loaded states
      00 00 // loading sprites
      00 00 // loaded sprites
  466 * 7	 03   // Action 3
      01  // RV 
      01  // Number of vehicles this action associate graphics with 
      06   // Vehicle ID
      00  // Number of different cargo types to support  
      AA 00


   // Large belly dump trailer
  467 * 67	 00 01 19 01 07
    00 00 00  // intro date 
    02 20     // reliability 
    03 11     // vehicle life 
    04 23     // class life 
    06 00     // climate 
    07 05     // load amount 
    08 80     // speed in mph * 3.2
    09 1E     // running cost factor 
    0A 48 4C 00 00 13 14 14 18        // running cost base 
    0E FF     // sprite ID
    0F \b120     // capacity
    10 FF     // cargo type
    11 34     // cost factor
    12 17     // sound effect
    15 20     // speed in mph * 0.8
    16 40 00 00 00     // Bit mask of cargo types available for refitting
    17 16     // Callback flags bit mask
    1A 00     // Refit cost, using 25% of the purchase price cost base
    1B 00     // Retire vehicle early, this many years before the end of phase 2
    1C 02     // Miscellaneous vehicle flags
    1D 10 00          // Refittable cargo classes
    1E 00 00          // Non-refittable cargo classes
    1F 60 B3 0A 00    // Long format introduction date  
  468 * 6	 07 83 01 \7! 02 01 // tropic only
  469 * 7	 00 01 01 01 07 10 08// copper ore default
  470 * 22	 04 01 7F 01 07 "Large Belly Dump" 00
  // Large Belly dump empty
  471 * 4	 01 01 01 08
  472 Y:\Documents\OTTD graphics\HEQS_build\Full HEQS\sprites\belly_dump_trailers/belly_dump_trailer_large.pcx 34 10 01 24 12 -3 -16
  473 Y:\Documents\OTTD graphics\HEQS_build\Full HEQS\sprites\belly_dump_trailers/belly_dump_trailer_large.pcx 66 10 09 20 26 -11 -9
  474 Y:\Documents\OTTD graphics\HEQS_build\Full HEQS\sprites\belly_dump_trailers/belly_dump_trailer_large.pcx 98 10 01 16 36 -11 -8
  475 Y:\Documents\OTTD graphics\HEQS_build\Full HEQS\sprites\belly_dump_trailers/belly_dump_trailer_large.pcx 146 10 09 20 26 -7 -8
  476 Y:\Documents\OTTD graphics\HEQS_build\Full HEQS\sprites\belly_dump_trailers/belly_dump_trailer_large.pcx 178 10 01 24 12 -9 -16
  477 Y:\Documents\OTTD graphics\HEQS_build\Full HEQS\sprites\belly_dump_trailers/belly_dump_trailer_large.pcx 210 10 09 20 26 -21 -7
  478 Y:\Documents\OTTD graphics\HEQS_build\Full HEQS\sprites\belly_dump_trailers/belly_dump_trailer_large.pcx 242 10 01 16 36 -23 -10
  479 Y:\Documents\OTTD graphics\HEQS_build\Full HEQS\sprites\belly_dump_trailers/belly_dump_trailer_large.pcx 290 10 09 20 26 -14 -12
  480 * 9	 02 01 AA //normal action2 defining graphics with no loading/loaded stages 
      01 // number loading states
      01 // number loaded states
      00 00 // loading sprites
      00 00 // loaded sprites
  481 * 7	 03   // Action 3
      01  // RV 
      01  // Number of vehicles this action associate graphics with 
      07   // Vehicle ID
      00  // Number of different cargo types to support  
      AA 00
  // ----------------- end of Belly Dump Trailers -------------- //

  // ----------------- Bulldozers / Crawler Tractors -----------//      

  // No. 6 Crawler Tractor	65t	140hp	1937-1993	14mph
  // Mining version (add logging later)
  482 * 67	 00 01 19 01 94 
    00 00 00  // intro date 
    02 20     // reliability 
    03 \b40     // vehicle life 
    04 \b56     // class life 
    06 0F     // climate 
    07 05     // load amount 
    08 \b45     // speed in mph * 3.2
    09 1E     // running cost factor 
    0A 48 4C 00 00 13 14 14 18        // running cost base 
    0E FF     // sprite ID
    0F 00     // capacity
    10 08     // cargo type
    11 34     // cost factor
    12 17     // sound effect
    15 \b12     // speed in mph * 0.8
    16 C0 20 00 68     // Bit mask of cargo types available for refitting
    // flips 1D / 1E values: excludes fruit, grain, wheat, maize; includes wood, tropical wood
    17 16     // Callback flags bit mask
    1A 00     // Refit cost, using 25% of the purchase price cost base
    1B 00     // Retire vehicle early, this many years before the end of phase 2
    1C 02     // Miscellaneous vehicle flags
    1D 10 00          // Refittable cargo classes
    1E 00 00          // Non-refittable cargo classes
    1F A1 CB 0A 00    // Long format introduction date  
    // set copper ore to be default in tropic instead of rubber
  483 * 46	 04 01 7F 01 94 "No. 6 Crawler Tractor (Mining / Logging)" 00
  484 * 4	 01 01 01 08
  // WARNING - offsets are different to the standard No. 6 Crawler - tweaked for compatibility with the dolly/log arch.  
  485 Y:\Documents\OTTD graphics\HEQS_build\Full HEQS\sprites\bulldozers/no-6-bulldozer.pcx 34 9 01 24 12 -5 -17
  486 Y:\Documents\OTTD graphics\HEQS_build\Full HEQS\sprites\bulldozers/no-6-bulldozer.pcx 66 9 01 20 26 -13 -12
  487 Y:\Documents\OTTD graphics\HEQS_build\Full HEQS\sprites\bulldozers/no-6-bulldozer.pcx 98 9 01 16 36 -12 -9
  488 Y:\Documents\OTTD graphics\HEQS_build\Full HEQS\sprites\bulldozers/no-6-bulldozer.pcx 146 9 01 20 26 -7 -9
  489 Y:\Documents\OTTD graphics\HEQS_build\Full HEQS\sprites\bulldozers/no-6-bulldozer.pcx 178 9 01 24 12 -5 -13
  490 Y:\Documents\OTTD graphics\HEQS_build\Full HEQS\sprites\bulldozers/no-6-bulldozer.pcx 210 9 01 20 26 -16 -9
  491 Y:\Documents\OTTD graphics\HEQS_build\Full HEQS\sprites\bulldozers/no-6-bulldozer.pcx 242 9 01 16 36 -24 -9
  492 Y:\Documents\OTTD graphics\HEQS_build\Full HEQS\sprites\bulldozers/no-6-bulldozer.pcx 290 9 01 20 26 -12 -11
  493 * 9	 02 01 A0 01 01 00 00 00 00
  494 * 9	 02 01 A1 //normal action2 defining graphics with no loading/loaded stages 
      01 // number loading states
      01 // number loaded states
      00 00 // loading sprites
      00 00 // loaded sprites
  495 * 18	 02 01 B0 //ID B0
                 81 10 00 FF //check byte value of variable 10 (no bit shift, FF andmask)
                 02 //check one ranges
                 03 80 01 01 //give callback result
                 05 80 02 02 //give callback result
                 FF FF //otherwise end the callback chain
  496 * 14	 02 01 B1 //ID B1
                 81 0C 00 FF //check byte value of variable 81 (no bit shift, FF andmask)
                 01 //check one range
                 B0 00 16 16 //go to ID B0 for value 16 (ie. go to the articulated vehicle building instructions)
                 A0 00 //otherwise go to next action 2 ID 
  497 * 7	 03   // Action 3
      01  // RV 
      01  // Number of vehicles this action associate graphics with 
      94  // Vehicle ID
      00  // Number of different cargo types to support  
      B1 00   // Action 2 ID above



  // No. 6	Crawler Tractor	65t	140hp	1937-1993	14mph
  // General cargo version
  498 * 67	 00 01 19 01 95 
    00 00 00  // intro date 
    02 20     // reliability 
    03 \b40     // vehicle life 
    04 \b56     // class life 
    06 0F     // climate 
    07 05     // load amount 
    08 \b45     // speed in mph * 3.2
    09 1E     // running cost factor 
    0A 48 4C 00 00 13 14 14 18        // running cost base 
    0E FF     // sprite ID
    0F 00     // capacity
    10 08     // cargo type
    11 34     // cost factor
    12 17     // sound effect
    15 \b12     // speed in mph * 0.8
    16 00 00 00 00     // Bit mask of cargo types available for refitting
    17 16     // Callback flags bit mask
    1A 00     // Refit cost, using 25% of the purchase price cost base
    1B 00     // Retire vehicle early, this many years before the end of phase 2
    1C 02     // Miscellaneous vehicle flags
    1D FF 03          // Refittable cargo classes
    1E 01 00          // Non-refittable cargo classes
    1F A1 CB 0A 00    // Long format introduction date  
  499 * 45	 04 01 7F 01 95 "No. 6 Crawler Tractor (General Cargoes)" 00
  500 * 4	 01 01 01 08
  501 Y:\Documents\OTTD graphics\HEQS_build\Full HEQS\sprites\bulldozers/no-6-crawler.pcx 34 9 01 24 12 -5 -15
  502 Y:\Documents\OTTD graphics\HEQS_build\Full HEQS\sprites\bulldozers/no-6-crawler.pcx 66 9 01 20 26 -16 -10
  503 Y:\Documents\OTTD graphics\HEQS_build\Full HEQS\sprites\bulldozers/no-6-crawler.pcx 98 9 01 16 36 -14 -9
  504 Y:\Documents\OTTD graphics\HEQS_build\Full HEQS\sprites\bulldozers/no-6-crawler.pcx 146 9 01 20 26 -5 -9
  505 Y:\Documents\OTTD graphics\HEQS_build\Full HEQS\sprites\bulldozers/no-6-crawler.pcx 178 9 01 24 12 -5 -13
  506 Y:\Documents\OTTD graphics\HEQS_build\Full HEQS\sprites\bulldozers/no-6-crawler.pcx 210 9 01 20 26 -17 -9
  507 Y:\Documents\OTTD graphics\HEQS_build\Full HEQS\sprites\bulldozers/no-6-crawler.pcx 242 9 01 16 36 -24 -10
  508 Y:\Documents\OTTD graphics\HEQS_build\Full HEQS\sprites\bulldozers/no-6-crawler.pcx 290 9 01 20 26 -10 -10
  509 * 9	 02 01 A0 01 01 00 00 00 00
//!!Warning (94): Redefining ID A1 not used since previous definition at sprite 494.
  510 * 9	 02 01 A1 //normal action2 defining graphics with no loading/loaded stages 
      01 // number loading states
      01 // number loaded states
      00 00 // loading sprites
      00 00 // loaded sprites
  511 * 14	 02 01 B0 //ID B0
                 81 10 00 FF //check byte value of variable 10 (no bit shift, FF andmask)
                 01 //check one ranges
                 00 80 01 02 //give callback result
                 FF FF //otherwise end the callback chain
  512 * 14	 02 01 B1 //ID B1
                 81 0C 00 FF //check byte value of variable 81 (no bit shift, FF andmask)
                 01 //check one range
                 B0 00 16 16 //go to ID B0 for value 16 (ie. go to the articulated vehicle building instructions)
                 A0 00 //otherwise go to ID A1 (ie. apply vehicle graphics)
  513 * 7	 03   // Action 3
      01  // RV 
      01  // Number of vehicles this action associate graphics with 
      95  // Vehicle ID
      00  // Number of different cargo types to support  
      B1 00   // Action 2 ID above


  // No. 8	Crawler Tractor	90t	285hp	1949-1972	12mph
  514 * 67	 00 01 19 01 96 
    00 00 00  // intro date 
    02 20     // reliability 
    03 \b40     // vehicle life 
    04 \b23     // class life 
    06 0F     // climate 
    07 05     // load amount 
    08 \b39     // speed in mph * 3.2
    09 1E     // running cost factor 
    0A 48 4C 00 00 13 14 14 18        // running cost base 
    0E FF     // sprite ID
    0F 00     // capacity
    10 FF     // cargo type
    11 34     // cost factor
    12 17     // sound effect
    15 \b10     // speed in mph * 0.8
    16 C0 20 00 68     // Bit mask of cargo types available for refitting
    // flips 1D / 1E values: excludes fruit, grain, wheat, maize; includes wood, tropical wood
    17 16     // Callback flags bit mask
    1A 00     // Refit cost, using 25% of the purchase price cost base
    1B 00     // Retire vehicle early, this many years before the end of phase 2
    1C 02     // Miscellaneous vehicle flags
    1D 10 00          // Refittable cargo classes
    1E 00 00          // Non-refittable cargo classes
    1F BD DC 0A 00    // Long format introduction date  
  515 * 21	 04 01 7F 01 96 "No. 8 Bulldozer" 00
  516 * 4	 01 01 02 08
  // sprites - bulldozer blade
  517 Y:\Documents\OTTD graphics\HEQS_build\Full HEQS\sprites\bulldozers/no-8-bulldozer.pcx 34 9 01 24 12 -5 -17
  518 Y:\Documents\OTTD graphics\HEQS_build\Full HEQS\sprites\bulldozers/no-8-bulldozer.pcx 66 9 09 20 26 -15 -10
  519 Y:\Documents\OTTD graphics\HEQS_build\Full HEQS\sprites\bulldozers/no-8-bulldozer.pcx 98 9 01 16 36 -14 -8
  520 Y:\Documents\OTTD graphics\HEQS_build\Full HEQS\sprites\bulldozers/no-8-bulldozer.pcx 146 9 09 20 26 -4 -6
  521 Y:\Documents\OTTD graphics\HEQS_build\Full HEQS\sprites\bulldozers/no-8-bulldozer.pcx 178 9 01 24 12 -5 -13
  522 Y:\Documents\OTTD graphics\HEQS_build\Full HEQS\sprites\bulldozers/no-8-bulldozer.pcx 210 9 09 20 26 -22 -5
  523 Y:\Documents\OTTD graphics\HEQS_build\Full HEQS\sprites\bulldozers/no-8-bulldozer.pcx 242 9 01 16 36 -24 -8
  524 Y:\Documents\OTTD graphics\HEQS_build\Full HEQS\sprites\bulldozers/no-8-bulldozer.pcx 290 9 09 20 26 -15 -12
  // sprites - no blade
  525 Y:\Documents\OTTD graphics\HEQS_build\Full HEQS\sprites\bulldozers/no-8-crawler.pcx 34 9 01 24 12 -5 -17
  526 Y:\Documents\OTTD graphics\HEQS_build\Full HEQS\sprites\bulldozers/no-8-crawler.pcx 66 9 09 20 26 -15 -10
  527 Y:\Documents\OTTD graphics\HEQS_build\Full HEQS\sprites\bulldozers/no-8-crawler.pcx 98 9 01 16 36 -14 -8
  528 Y:\Documents\OTTD graphics\HEQS_build\Full HEQS\sprites\bulldozers/no-8-crawler.pcx 146 9 09 20 26 -4 -6
  529 Y:\Documents\OTTD graphics\HEQS_build\Full HEQS\sprites\bulldozers/no-8-crawler.pcx 178 9 01 24 12 -5 -13
  530 Y:\Documents\OTTD graphics\HEQS_build\Full HEQS\sprites\bulldozers/no-8-crawler.pcx 210 9 09 20 26 -22 -5
  531 Y:\Documents\OTTD graphics\HEQS_build\Full HEQS\sprites\bulldozers/no-8-crawler.pcx 242 9 01 16 36 -24 -8
  532 Y:\Documents\OTTD graphics\HEQS_build\Full HEQS\sprites\bulldozers/no-8-crawler.pcx 290 9 09 20 26 -15 -12
//!!Warning (94): Redefining ID A1 not used since previous definition at sprite 510.
  533 * 9	 02 01 A1 01 01 00 00 00 00
  534 * 9	 02 01 A2 01 01 01 00 01 00
  535 * 4	 01 01 01 04
  536 * 1	 00
  537 * 1	 00  
  538 Y:\Documents\OTTD graphics\HEQS_build\Full HEQS\sprites/heqs2.pcx 210 1000 01 16 36 -18 -8
  539 * 1	 00
  540 * 9	 02 01 A0 01 01 00 00 00 00
  541 * 18	 02 01 B0
               81 10 00 FF //check byte value of variable 10 (no bit shift, FF andmask)
               02 //check two ranges
               04 80 01 01 //give callback result
               07 80 02 02 //give callback result
               FF FF //otherwise end the callback chain
  542 * 11	 02 01 B2 // !! this random action 2 is not used as of Nov 2008 - graphics without blade are not very good 
               83 00 00 // randomise graphics (83 is per engine)
               02 //check two ranges
                A2 00 //apply vehicle graphics
                A1 00 //apply vehicle graphics
  543 * 14	 02 01 B1
               81 0C 00 FF //check byte value of variable 81 (no bit shift, FF andmask)
               01 //check one range
                B0 00 16 16 //go to ID B0 for value 16 (ie. go to the articulated vehicle building instructions)
               A1 00 // go to ID A1
  544 * 7	 03 01 01 96 00 B1 00


	// No. 9	Crawler Tractor	180t	350hp	1970-1994	12mph
  545 * 67	 00 01 19 01 97 
    00 00 00  // intro date 
    02 20     // reliability 
    03 \b35     // vehicle life 
    04 \b20     // class life 
    06 0F     // climate 
    07 05     // load amount 
    08 80     // speed in mph * 3.2
    09 1E     // running cost factor 
    0A 48 4C 00 00 13 14 14 18        // running cost base 
    0E FF     // sprite ID
    0F 00     // capacity
    10 FF     // cargo type
    11 34     // cost factor
    12 17     // sound effect
    15 20     // speed in mph * 0.8
    16 C0 20 00 68     // Bit mask of cargo types available for refitting
    // flips 1D / 1E values: excludes fruit, grain, wheat, maize; includes wood, tropical wood
    17 16     // Callback flags bit mask
    1A 00     // Refit cost, using 25% of the purchase price cost base
    1B 00     // Retire vehicle early, this many years before the end of phase 2
    1C 02     // Miscellaneous vehicle flags
    1D 10 00          // Refittable cargo classes
    1E 00 00          // Non-refittable cargo classes
    1F AE FA 0A 00    // Long format introduction date  
  546 * 21	 04 01 7F 01 97 "No. 9 Bulldozer" 00
  547 * 4	 01 01 02 08
  // with bulldozer blade
[...]
 1006 Y:\Documents\OTTD graphics\HEQS_build\Full HEQS\sprites\mining_trucks/95t_mining_truck_white.pcx 242 10 01 16 36 -18 -8
 1007 Y:\Documents\OTTD graphics\HEQS_build\Full HEQS\sprites\mining_trucks/95t_mining_truck_white.pcx 290 10 09 20 26 -10 -11
  // Kilimanjaro 95t hauler red
 1008 Y:\Documents\OTTD graphics\HEQS_build\Full HEQS\sprites\mining_trucks/95t_mining_truck_red.pcx 34 10 01 24 12 -5 -13
 1009 Y:\Documents\OTTD graphics\HEQS_build\Full HEQS\sprites\mining_trucks/95t_mining_truck_red.pcx 66 10 09 20 26 -15 -8
 1010 Y:\Documents\OTTD graphics\HEQS_build\Full HEQS\sprites\mining_trucks/95t_mining_truck_red.pcx 98 10 01 16 36 -18 -8
 1011 Y:\Documents\OTTD graphics\HEQS_build\Full HEQS\sprites\mining_trucks/95t_mining_truck_red.pcx 146 10 09 20 26 -11 -9
 1012 Y:\Documents\OTTD graphics\HEQS_build\Full HEQS\sprites\mining_trucks/95t_mining_truck_red.pcx 178 10 01 24 12 -5 -13
 1013 Y:\Documents\OTTD graphics\HEQS_build\Full HEQS\sprites\mining_trucks/95t_mining_truck_red.pcx 210 10 09 20 26 -16 -9
 1014 Y:\Documents\OTTD graphics\HEQS_build\Full HEQS\sprites\mining_trucks/95t_mining_truck_red.pcx 242 10 01 16 36 -18 -8
 1015 Y:\Documents\OTTD graphics\HEQS_build\Full HEQS\sprites\mining_trucks/95t_mining_truck_red.pcx 290 10 09 20 26 -10 -11
  // Kilimanjaro 95t hauler grey 
 1016 Y:\Documents\OTTD graphics\HEQS_build\Full HEQS\sprites\mining_trucks/95t_mining_truck_grey.pcx 34 10 01 24 12 -5 -13
 1017 Y:\Documents\OTTD graphics\HEQS_build\Full HEQS\sprites\mining_trucks/95t_mining_truck_grey.pcx 66 10 09 20 26 -15 -8
 1018 Y:\Documents\OTTD graphics\HEQS_build\Full HEQS\sprites\mining_trucks/95t_mining_truck_grey.pcx 98 10 01 16 36 -18 -8
 1019 Y:\Documents\OTTD graphics\HEQS_build\Full HEQS\sprites\mining_trucks/95t_mining_truck_grey.pcx 146 10 09 20 26 -11 -9
 1020 Y:\Documents\OTTD graphics\HEQS_build\Full HEQS\sprites\mining_trucks/95t_mining_truck_grey.pcx 178 10 01 24 12 -5 -13
 1021 Y:\Documents\OTTD graphics\HEQS_build\Full HEQS\sprites\mining_trucks/95t_mining_truck_grey.pcx 210 10 09 20 26 -16 -9
 1022 Y:\Documents\OTTD graphics\HEQS_build\Full HEQS\sprites\mining_trucks/95t_mining_truck_grey.pcx 242 10 01 16 36 -18 -8
 1023 Y:\Documents\OTTD graphics\HEQS_build\Full HEQS\sprites\mining_trucks/95t_mining_truck_grey.pcx 290 10 09 20 26 -10 -11
 1024 * 13	 02 01 A1 02 02 00 00 01 00 00 00 01 00
 1025 * 13	 02 01 A2 02 02 00 00 02 00 00 00 02 00
 1026 * 13	 02 01 A3 02 02 00 00 03 00 00 00 03 00
 1027 * 13	 02 01 A4 02 02 00 00 04 00 00 00 04 00
 1028 * 13	 02 01 A5 02 02 00 00 05 00 00 00 05 00
 1029 * 13	 02 01 A6 02 02 00 00 06 00 00 00 06 00
 1030 * 4	 01 01 01 04 // depot sprites
 1031 * 1	 00
 1032 * 1	 00
 1033 Y:\Documents\OTTD graphics\HEQS_build\Full HEQS\sprites\mining_trucks/95t_mining_truck.pcx 370 14 01 12 36 -14 -6
 1034 * 1	 00
 1035 * 9	 02 01 AF 01 01 00 00 00 00
 1036 * 25	 03 01 01 1F 
   06 
   01 A1 00
   08 A2 00
   0E A3 00 
   11 A4 00
   17 A5 00
   FF AF 00 // buy menu sprites
   A6 00 // default sprites

  // Kilimanjaro (Articulated) Dump Truck  240t		2001-2050	37mph
 1037 * 67	 00 01 19 01 10
    00 \w1-1-1920  // intro date
    02 20     // reliability
    03 19     // vehicle life
    04 19     // class life
    06 0F     // climate
    07 05     // load amount
    08 \b118     // speed in mph * 3.2
    09 50     // running cost factor
    0A 48 4C 00 00 13 28 14 C8        // running cost base
    0E FF     // sprite ID
    0F 00     // capacity
    10 FF     // cargo type 
    11 5D     // cost factor
    12 19     // sound effect
    15 \b30     // speed in mph * 0.8
    16 40 00 00 28     // Bit mask of cargo types available for refitting
    // flips 1D / 1E values: excludes grain, wheat, maize
    17 16     // Callback flags bit mask
    1A 00     // Refit cost, using 25% of the purchase price cost base
    1B 00     // Retire vehicle early, this many years before the end of phase 2
    1C 02     // Miscellaneous vehicle flags
    1D 10 00          // Refittable cargo classes
    1E EF 03          // Non-refittable cargo classes
    1F 72 EC 0A 00    // Long format introduction date
 1038 * 42	 04 01 7F 01 10 "Kilimanjaro (Articulated) Dump Truck" 00
 1039 * 4	 01 01 01 08
  // Kilimanjaro (Articulated) dump truck empty
 1040 Y:\Documents\OTTD graphics\HEQS_build\Full HEQS\sprites\off_highway_trucks/mining_truck_chassis.pcx 34 10 01 24 12 -5 -16
 1041 Y:\Documents\OTTD graphics\HEQS_build\Full HEQS\sprites\off_highway_trucks/mining_truck_chassis.pcx 66 10 09 20 26 -15 -8
 1042 Y:\Documents\OTTD graphics\HEQS_build\Full HEQS\sprites\off_highway_trucks/mining_truck_chassis.pcx 98 10 01 16 36 -18 -10
 1043 Y:\Documents\OTTD graphics\HEQS_build\Full HEQS\sprites\off_highway_trucks/mining_truck_chassis.pcx 146 10 09 20 26 -11 -9
 1044 Y:\Documents\OTTD graphics\HEQS_build\Full HEQS\sprites\off_highway_trucks/mining_truck_chassis.pcx 178 10 01 24 12 -5 -15
 1045 Y:\Documents\OTTD graphics\HEQS_build\Full HEQS\sprites\off_highway_trucks/mining_truck_chassis.pcx 210 10 09 20 26 -16 -9
 1046 Y:\Documents\OTTD graphics\HEQS_build\Full HEQS\sprites\off_highway_trucks/mining_truck_chassis.pcx 242 10 01 16 36 -20 -10
 1047 Y:\Documents\OTTD graphics\HEQS_build\Full HEQS\sprites\off_highway_trucks/mining_truck_chassis.pcx 290 10 09 20 26 -10 -11
 1048 * 9	 02 01 A1 01 01 00 00 00 00 //normal action2 defining graphics with no loading/loaded stages
 1049 * 4	 01 01 01 04
 1050 * 1	 00
 1051 * 1	 00
 1052 Y:\Documents\OTTD graphics\HEQS_build\Full HEQS\sprites\off_highway_trucks/mining_truck_chassis.pcx 242 10 01 16 36 -18 -8
 1053 * 1	 00
 1054 * 22	 02 01 B0 //ID B0
               81 10 00 FF //check byte value of variable 10 (no bit shift, FF andmask)
               03 //check one ranges
               07 80 01 01 //give callback result
               04 80 02 02 //give callback result
               07 80 03 03 //give callback result
               FF FF //otherwise end the callback chain
 1055 * 14	 02 01 B1 //ID B1
               81 0C 00 FF //check byte value of variable 81 (no bit shift, FF andmask)
               01 //check one range
               B0 00 16 16 //go to ID B0 for value 16 (ie. go to the articulated vehicle building instructions)
               A1 00 //otherwise go to ID A1 (ie. apply vehicle graphics)
 1056 * 7	 03   // Action 3
    01  // RV 
    01  // Number of vehicles this action associate graphics with 
    10  // Vehicle ID
    00  // Number of different cargo types to support  
    B1 00   // Action 2 ID above  

  // Unitised Mining Hauler  200t	1200hp	1990-2050	57mph
 1057 * 67	 00 01 19 01 11
    00 \w1-1-1920  // intro date
    02 20     // reliability
    03 19     // vehicle life
    04 19     // class life
    06 0F     // climate
    07 05     // load amount
    08 \b182     // speed in mph * 3.2
    09 50     // running cost factor
    0A 48 4C 00 00 13 28 14 C8        // running cost base
    0E FF     // sprite ID
    0F \b200     // capacity
    10 FF     // cargo type 
    11 5D     // cost factor
    12 19     // sound effect
    15 \b46     // speed in mph * 0.8
    16 40 00 00 28     // Bit mask of cargo types available for refitting
    // flips 1D / 1E values: excludes grain, wheat, maize
    17 00     // Callback flags bit mask
    1A 00     // Refit cost, using 25% of the purchase price cost base
    1B 00     // Retire vehicle early, this many years before the end of phase 2
    1C 02     // Miscellaneous vehicle flags
    1D 10 00          // Refittable cargo classes
    1E EF 03          // Non-refittable cargo classes
    1F 2F 07 0B 00   // Long format introduction date
 1058 * 27	 04 01 7F 01 11 "Unitised Mining Truck" 00
//!!Warning (97): Set 00 defined by the previous Action 1 (sprite 1049) has not been used.
 1059 * 4	 01 01 07 08
  // unitised hauler empty
 1060 Y:\Documents\OTTD graphics\HEQS_build\Full HEQS\sprites\mining_trucks/unitised_mining_truck.pcx 34 10 01 24 12 -5 -15
 1061 Y:\Documents\OTTD graphics\HEQS_build\Full HEQS\sprites\mining_trucks/unitised_mining_truck.pcx 66 10 01 22 30 -17 -10
 1062 Y:\Documents\OTTD graphics\HEQS_build\Full HEQS\sprites\mining_trucks/unitised_mining_truck.pcx 98 10 01 16 36 -14 -9
 1063 Y:\Documents\OTTD graphics\HEQS_build\Full HEQS\sprites\mining_trucks/unitised_mining_truck.pcx 146 10 01 22 30 -10 -10
 1064 Y:\Documents\OTTD graphics\HEQS_build\Full HEQS\sprites\mining_trucks/unitised_mining_truck.pcx 178 10 01 24 12 -5 -13
 1065 Y:\Documents\OTTD graphics\HEQS_build\Full HEQS\sprites\mining_trucks/unitised_mining_truck.pcx 210 10 01 22 30 -18 -11
 1066 Y:\Documents\OTTD graphics\HEQS_build\Full HEQS\sprites\mining_trucks/unitised_mining_truck.pcx 242 10 01 16 36 -24 -10
 1067 Y:\Documents\OTTD graphics\HEQS_build\Full HEQS\sprites\mining_trucks/unitised_mining_truck.pcx 290 10 01 22 30 -9 -11
  // unitised hauler coal
 1068 Y:\Documents\OTTD graphics\HEQS_build\Full HEQS\sprites\mining_trucks/unitised_mining_truck_coal.pcx 34 10 01 24 12 -5 -15
 1069 Y:\Documents\OTTD graphics\HEQS_build\Full HEQS\sprites\mining_trucks/unitised_mining_truck_coal.pcx 66 10 01 22 30 -17 -10
 1070 Y:\Documents\OTTD graphics\HEQS_build\Full HEQS\sprites\mining_trucks/unitised_mining_truck_coal.pcx 98 10 01 16 36 -14 -9
 1071 Y:\Documents\OTTD graphics\HEQS_build\Full HEQS\sprites\mining_trucks/unitised_mining_truck_coal.pcx 146 10 01 22 30 -10 -10
 1072 Y:\Documents\OTTD graphics\HEQS_build\Full HEQS\sprites\mining_trucks/unitised_mining_truck_coal.pcx 178 10 01 24 12 -5 -13
 1073 Y:\Documents\OTTD graphics\HEQS_build\Full HEQS\sprites\mining_trucks/unitised_mining_truck_coal.pcx 210 10 01 22 30 -18 -11
 1074 Y:\Documents\OTTD graphics\HEQS_build\Full HEQS\sprites\mining_trucks/unitised_mining_truck_coal.pcx 242 10 01 16 36 -24 -10
 1075 Y:\Documents\OTTD graphics\HEQS_build\Full HEQS\sprites\mining_trucks/unitised_mining_truck_coal.pcx 290 10 01 22 30 -9 -11
  // unitised hauler iron 
 1076 Y:\Documents\OTTD graphics\HEQS_build\Full HEQS\sprites\mining_trucks/unitised_mining_truck_iron.pcx 34 10 01 24 12 -5 -15
 1077 Y:\Documents\OTTD graphics\HEQS_build\Full HEQS\sprites\mining_trucks/unitised_mining_truck_iron.pcx 66 10 01 22 30 -17 -10
 1078 Y:\Documents\OTTD graphics\HEQS_build\Full HEQS\sprites\mining_trucks/unitised_mining_truck_iron.pcx 98 10 01 16 36 -14 -9
 1079 Y:\Documents\OTTD graphics\HEQS_build\Full HEQS\sprites\mining_trucks/unitised_mining_truck_iron.pcx 146 10 01 22 30 -10 -10
 1080 Y:\Documents\OTTD graphics\HEQS_build\Full HEQS\sprites\mining_trucks/unitised_mining_truck_iron.pcx 178 10 01 24 12 -5 -13
 1081 Y:\Documents\OTTD graphics\HEQS_build\Full HEQS\sprites\mining_trucks/unitised_mining_truck_iron.pcx 210 10 01 22 30 -18 -11
 1082 Y:\Documents\OTTD graphics\HEQS_build\Full HEQS\sprites\mining_trucks/unitised_mining_truck_iron.pcx 242 10 01 16 36 -24 -10
 1083 Y:\Documents\OTTD graphics\HEQS_build\Full HEQS\sprites\mining_trucks/unitised_mining_truck_iron.pcx 290 10 01 22 30 -9 -11
  // unitised hauler brown
 1084 Y:\Documents\OTTD graphics\HEQS_build\Full HEQS\sprites\mining_trucks/unitised_mining_truck_brown.pcx 34 10 01 24 12 -5 -15
 1085 Y:\Documents\OTTD graphics\HEQS_build\Full HEQS\sprites\mining_trucks/unitised_mining_truck_brown.pcx 66 10 01 22 30 -17 -10
 1086 Y:\Documents\OTTD graphics\HEQS_build\Full HEQS\sprites\mining_trucks/unitised_mining_truck_brown.pcx 98 10 01 16 36 -14 -9
 1087 Y:\Documents\OTTD graphics\HEQS_build\Full HEQS\sprites\mining_trucks/unitised_mining_truck_brown.pcx 146 10 01 22 30 -10 -10
 1088 Y:\Documents\OTTD graphics\HEQS_build\Full HEQS\sprites\mining_trucks/unitised_mining_truck_brown.pcx 178 10 01 24 12 -5 -13
 1089 Y:\Documents\OTTD graphics\HEQS_build\Full HEQS\sprites\mining_trucks/unitised_mining_truck_brown.pcx 210 10 01 22 30 -18 -11
 1090 Y:\Documents\OTTD graphics\HEQS_build\Full HEQS\sprites\mining_trucks/unitised_mining_truck_brown.pcx 242 10 01 16 36 -24 -10
 1091 Y:\Documents\OTTD graphics\HEQS_build\Full HEQS\sprites\mining_trucks/unitised_mining_truck_brown.pcx 290 10 01 22 30 -9 -11
  // unitised hauler white 
 1092 Y:\Documents\OTTD graphics\HEQS_build\Full HEQS\sprites\mining_trucks/unitised_mining_truck_white.pcx 34 10 01 24 12 -5 -15
 1093 Y:\Documents\OTTD graphics\HEQS_build\Full HEQS\sprites\mining_trucks/unitised_mining_truck_white.pcx 66 10 01 22 30 -17 -10
 1094 Y:\Documents\OTTD graphics\HEQS_build\Full HEQS\sprites\mining_trucks/unitised_mining_truck_white.pcx 98 10 01 16 36 -14 -9
 1095 Y:\Documents\OTTD graphics\HEQS_build\Full HEQS\sprites\mining_trucks/unitised_mining_truck_white.pcx 146 10 01 22 30 -10 -10
 1096 Y:\Documents\OTTD graphics\HEQS_build\Full HEQS\sprites\mining_trucks/unitised_mining_truck_white.pcx 178 10 01 24 12 -5 -13
 1097 Y:\Documents\OTTD graphics\HEQS_build\Full HEQS\sprites\mining_trucks/unitised_mining_truck_white.pcx 210 10 01 22 30 -18 -11
 1098 Y:\Documents\OTTD graphics\HEQS_build\Full HEQS\sprites\mining_trucks/unitised_mining_truck_white.pcx 242 10 01 16 36 -24 -10
 1099 Y:\Documents\OTTD graphics\HEQS_build\Full HEQS\sprites\mining_trucks/unitised_mining_truck_white.pcx 290 10 01 22 30 -9 -11
  // unitised hauler red
 1100 Y:\Documents\OTTD graphics\HEQS_build\Full HEQS\sprites\mining_trucks/unitised_mining_truck_red.pcx 34 10 01 24 12 -5 -15
 1101 Y:\Documents\OTTD graphics\HEQS_build\Full HEQS\sprites\mining_trucks/unitised_mining_truck_red.pcx 66 10 01 22 30 -17 -10
 1102 Y:\Documents\OTTD graphics\HEQS_build\Full HEQS\sprites\mining_trucks/unitised_mining_truck_red.pcx 98 10 01 16 36 -14 -9
 1103 Y:\Documents\OTTD graphics\HEQS_build\Full HEQS\sprites\mining_trucks/unitised_mining_truck_red.pcx 146 10 01 22 30 -10 -10
 1104 Y:\Documents\OTTD graphics\HEQS_build\Full HEQS\sprites\mining_trucks/unitised_mining_truck_red.pcx 178 10 01 24 12 -5 -13
 1105 Y:\Documents\OTTD graphics\HEQS_build\Full HEQS\sprites\mining_trucks/unitised_mining_truck_red.pcx 210 10 01 22 30 -18 -11
 1106 Y:\Documents\OTTD graphics\HEQS_build\Full HEQS\sprites\mining_trucks/unitised_mining_truck_red.pcx 242 10 01 16 36 -24 -10
 1107 Y:\Documents\OTTD graphics\HEQS_build\Full HEQS\sprites\mining_trucks/unitised_mining_truck_red.pcx 290 10 01 22 30 -9 -11
  // unitised hauler grey
 1108 Y:\Documents\OTTD graphics\HEQS_build\Full HEQS\sprites\mining_trucks/unitised_mining_truck_grey.pcx 34 10 01 24 12 -5 -15
 1109 Y:\Documents\OTTD graphics\HEQS_build\Full HEQS\sprites\mining_trucks/unitised_mining_truck_grey.pcx 66 10 01 22 30 -17 -10
 1110 Y:\Documents\OTTD graphics\HEQS_build\Full HEQS\sprites\mining_trucks/unitised_mining_truck_grey.pcx 98 10 01 16 36 -14 -9
 1111 Y:\Documents\OTTD graphics\HEQS_build\Full HEQS\sprites\mining_trucks/unitised_mining_truck_grey.pcx 146 10 01 22 30 -10 -10
 1112 Y:\Documents\OTTD graphics\HEQS_build\Full HEQS\sprites\mining_trucks/unitised_mining_truck_grey.pcx 178 10 01 24 12 -5 -13
 1113 Y:\Documents\OTTD graphics\HEQS_build\Full HEQS\sprites\mining_trucks/unitised_mining_truck_grey.pcx 210 10 01 22 30 -18 -11
 1114 Y:\Documents\OTTD graphics\HEQS_build\Full HEQS\sprites\mining_trucks/unitised_mining_truck_grey.pcx 242 10 01 16 36 -24 -10
 1115 Y:\Documents\OTTD graphics\HEQS_build\Full HEQS\sprites\mining_trucks/unitised_mining_truck_grey.pcx 290 10 01 22 30 -9 -11
 1116 * 13	 02 01 A1 02 02 00 00 01 00 00 00 01 00
 1117 * 13	 02 01 A2 02 02 00 00 02 00 00 00 02 00
 1118 * 13	 02 01 A3 02 02 00 00 03 00 00 00 03 00
 1119 * 13	 02 01 A4 02 02 00 00 04 00 00 00 04 00
 1120 * 13	 02 01 A5 02 02 00 00 05 00 00 00 05 00
 1121 * 13	 02 01 A6 02 02 00 00 06 00 00 00 06 00
 1122 * 4	 01 01 01 04
 1123 * 1	 00
 1124 * 1	 00
 1125 Y:\Documents\OTTD graphics\HEQS_build\Full HEQS\sprites\mining_trucks/unitised_mining_truck.pcx 242 10 01 16 36 -24 -10
 1126 * 1	 00
 1127 * 9	 02 01 AF 01 01 00 00 00 00
 1128 * 25	 03 01 01 11 06 01 A1 00 08 A2 00 0E A3 00 11 A4 00 17 A5 00 FF AF 00 A6 00
  // --------------------------- end of Dump trucks / Mining Haulers --------------------- //

  // --------------------------- Off-Highway Trucks --------------------- //

  // Cascade Off-Highway Truck  90t		1960-1982		30mph
 1129 * 67	 00 01 19 01 23
    00 \w1-1-1920  // intro date
    02 20     // reliability
    03 19     // vehicle life
    04 19     // class life
    06 0F     // climate
    07 05     // load amount
    08 \b96     // speed in mph * 3.2
    09 50     // running cost factor
    0A 48 4C 00 00 13 28 14 C8        // running cost base
    0E FF     // sprite ID
    0F 00     // capacity
    10 FF     // cargo type 
    11 5D     // cost factor
    12 19     // sound effect
    15 \b24     // speed in mph * 0.8
    16 40 00 00 28     // Bit mask of cargo types available for refitting
    // flips 1D / 1E values: excludes grain, wheat, maize
    17 16     // Callback flags bit mask
    1A 00     // Refit cost, using 25% of the purchase price cost base
    1B 00     // Retire vehicle early, this many years before the end of phase 2
    1C 02     // Miscellaneous vehicle flags
    1D 10 00          // Refittable cargo classes
    1E EF 03          // Non-refittable cargo classes
    1F 72 EC 0A 00    // Long format introduction date
 1130 * 31	 04 01 7F 01 23 "Cascade Off-Highway Truck" 00
 1131 * 4	 01 01 01 08
  // Cascade off-highway truck empty
 1132 Y:\Documents\OTTD graphics\HEQS_build\Full HEQS\sprites\off_highway_trucks/1960_truck_3_axle.pcx 34 10 01 24 12 -5 -18
 1133 Y:\Documents\OTTD graphics\HEQS_build\Full HEQS\sprites\off_highway_trucks/1960_truck_3_axle.pcx 66 10 09 20 26 -17 -8
 1134 Y:\Documents\OTTD graphics\HEQS_build\Full HEQS\sprites\off_highway_trucks/1960_truck_3_axle.pcx 98 10 01 16 36 -10 -10
 1135 Y:\Documents\OTTD graphics\HEQS_build\Full HEQS\sprites\off_highway_trucks/1960_truck_3_axle.pcx 146 10 09 20 26 -11 -9
 1136 Y:\Documents\OTTD graphics\HEQS_build\Full HEQS\sprites\off_highway_trucks/1960_truck_3_axle.pcx 178 10 01 24 12 -5 -16
 1137 Y:\Documents\OTTD graphics\HEQS_build\Full HEQS\sprites\off_highway_trucks/1960_truck_3_axle.pcx 210 10 09 20 26 -16 -9
 1138 Y:\Documents\OTTD graphics\HEQS_build\Full HEQS\sprites\off_highway_trucks/1960_truck_3_axle.pcx 242 10 01 16 36 -18 -10
 1139 Y:\Documents\OTTD graphics\HEQS_build\Full HEQS\sprites\off_highway_trucks/1960_truck_3_axle.pcx 290 10 09 20 26 -8 -11
 1140 * 9	 02 01 A1 01 01 00 00 00 00 //normal action2 defining graphics with no loading/loaded stages
 1141 * 4	 01 01 01 04
 1142 * 1	 00
 1143 * 1	 00
 1144 Y:\Documents\OTTD graphics\HEQS_build\Full HEQS\sprites\off_highway_trucks/1960_truck_3_axle.pcx 242 10 01 16 36 -18 -8
 1145 * 1	 00
 1146 * 14	 02 01 B0 //ID B0
               81 10 00 FF //check byte value of variable 10 (no bit shift, FF andmask)
               01 //check one ranges
               06 80 01 01 //give callback result
               FF FF //otherwise end the callback chain
 1147 * 14	 02 01 B1 //ID B1
               81 0C 00 FF //check byte value of variable 81 (no bit shift, FF andmask)
               01 //check one range
               B0 00 16 16 //go to ID B0 for value 16 (ie. go to the articulated vehicle building instructions)
               A1 00 //otherwise go to ID A1 (ie. apply vehicle graphics)
 1148 * 7	 03   // Action 3
    01  // RV 
    01  // Number of vehicles this action associate graphics with 
    23  // Vehicle ID
    00  // Number of different cargo types to support  
    B1 00   // Action 2 ID above  
// --------------------------- end of Off-Highway Trucks --------------------- //
//!!Warning (97): Set 00 defined by the previous Action 1 (sprite 1141) has not been used.
//!!For feature 1 the following cargoIDs have not been used since their most recent definition:
//!!FF (last defined at sprite 354)
