// Automatically generated by GRFCODEC. Do not modify!
// (Info version 7)
// Format: spritenum pcxfile xpos ypos compression ysize xsize xrel yrel
    0 * 4	 68 05 00 00
    1 * 147	 08 06 "AP" 12 01 "HEQS (Preview) v0.3" 00 "Heavy equipment "
	 "(Preview) v0.3 in dual company "
	 "colours. Brought to you by"
	 "andythenorth and Richard Wheeler (Zephyris)"
	 "2008" 00

    2 * 170	 00 08 01 29 00 09 "PASSCOALMAILOIL_LVSTGOODGRAIWOODIORESTELVALU"
	 "PAPRFOODFRUTCOREWATRRUBRSUGRTOYSBATTSWETTOFFCOLACT"
	 "CDBUBLPLSTFZDRWHEAGOLDMAIZTWODDIAM___A___B___C___D"
	 "___E___F___G___H___I"


    3 * 67	 00 01 19 01 01 
      00 00 00  // intro date
      02 20     // reliability
      03 19     // vehicle life
      04 23     // class life
      06 00     // climate
      07 05     // load amount
      08 E0     // speed in mph * 3.2
      09 08     // running cost factor
      0A 48 4C 00 00 13 00 14 28        // running cost base
      0E FF     // sprite ID
      0F 32     // capacity
      10 FF     // cargo type
      11 00     // cost factor
      12 00     // sound effect
      15 38     // speed in mph * 0.8
      16 00 00 00 00    // Bit mask of cargo types available for refitting
      17 16     // Callback flags bit mask
      1A 00     // Refit cost, using 25% of the purchase price cost base
      1B 00     // Retire vehicle early, this many years before the end of phase 2
      1C 02     // Miscellaneous vehicle flags     
      1D FF 03     // Refittable cargo classes 
      1E 01 00     // Non-refittable cargo classes
      1F 60 B3 0A 00   // Long format introduction date 

    4 * 67	 00 01 19 01 0A 00 00 00 02 20 03 11 04 23 06 0F 07 05 08 80 09 1E 0A 48 4C 00 00 13 14 14 18 0E
	 FF 0F 00 10 FF 11 34 12 17 15 20 16 00 00 00 00 17 16 1A 00 1B 00 1C 02 1D FF 03 1E 00 00 1F 60
	 B3 0A 00
    5 * 67	 00 01 19 01 0B 00 00 00 02 20 03 11 04 23 06 0F 07 05 08 80 09 1E 0A 48 4C 00 00 13 14 14 18 0E
	 FF 0F 00 10 FF 11 34 12 17 15 20 16 00 00 00 00 17 16 1A 00 1B 00 1C 02 1D FF 03 1E 00 00 1F 60
	 B3 0A 00
    6 * 67	 00 01 19 01 0C 00 00 00 02 20 03 11 04 23 06 0F 07 05 08 80 09 1E 0A 48 4C 00 00 13 14 14 18 0E
	 FF 0F 00 10 FF 11 34 12 17 15 20 16 00 00 00 00 17 16 1A 00 1B 00 1C 02 1D FF 03 1E 00 00 1F 60
	 B3 0A 00
    7 * 29	 04 01 7F 01 01 "[Generic Large Trailer]" 00


   // ----------- Trailer dollies -------------//
   // Large dolly
    8 * 67	 00 01 19 01 03 // Action 0
      00 00 00  // intro date
      02 20     // reliability
      03 19     // vehicle life
      04 23     // class life
      06 00     // climate
      07 05     // load amount
      08 E0     // speed in mph * 3.2
      09 08     // running cost factor
      0A 48 4C 00 00 13 00 14 20 // running cost base
      0E FF     // sprite ID
      0F 00     // capacity
      10 FF     // cargo type
      11 00     // cost factor
      12 00     // sound effect
      15 38     // speed in mph * 0.8
      16 00 00 00 00    // Bit mask of cargo types available for refitting
      17 16     // Callback flags bit mask
      1A 00     // Refit cost, using 25% of the purchase price cost base
      1B 00     // Retire vehicle early, this many years before the end of phase 2
      1C 02     // Miscellaneous vehicle flags     
      1D FF 03     // Refittable cargo classes 
      1E 01 00     // Non-refittable cargo classes
      1F 60 B3 0A 00   // Long format introduction date     
    9 * 19	 04 01 7F 01 03 "[Large Dolly]" 00
   10 * 4	 01 01 01 08
   11 Y:\Documents\OTTD graphics\HEQS_build\Full HEQS\sprites/dolly_large.pcx 34 10 01 24 12 -5 -18
   12 Y:\Documents\OTTD graphics\HEQS_build\Full HEQS\sprites/dolly_large.pcx 66 10 09 20 26 -8 -13
   13 Y:\Documents\OTTD graphics\HEQS_build\Full HEQS\sprites/dolly_large.pcx 98 10 01 16 36 -12 -9
   14 Y:\Documents\OTTD graphics\HEQS_build\Full HEQS\sprites/dolly_large.pcx 146 10 09 20 26 -6 -9
   15 Y:\Documents\OTTD graphics\HEQS_build\Full HEQS\sprites/dolly_large.pcx 178 10 01 24 12 -7 -10
   16 Y:\Documents\OTTD graphics\HEQS_build\Full HEQS\sprites/dolly_large.pcx 210 10 09 20 26 -18 -7
   17 Y:\Documents\OTTD graphics\HEQS_build\Full HEQS\sprites/dolly_large.pcx 242 10 01 16 36 -15 -10
   18 Y:\Documents\OTTD graphics\HEQS_build\Full HEQS\sprites/dolly_large.pcx 290 10 09 20 26 -13 -13
   19 * 9	 02 01 BB 01 01 00 00 00 00
   20 * 14	 02 01 AA 81 0C 00 FF 01 05 80 11 11 BB 00
   21 * 7	 03   // Action 3
      01  // RV 
      01  // Number of vehicles this action associate graphics with 
      03   // Vehicle ID
      00  // Number of different cargo types to support  
      AA 00

   // Very Large dolly
   22 * 67	 00 01 19 01 04 // Action 0
      00 00 00  // intro date
      02 20     // reliability
      03 19     // vehicle life
      04 23     // class life
      06 00     // climate
      07 05     // load amount
      08 E0     // speed in mph * 3.2
      09 08     // running cost factor
      0A 48 4C 00 00 13 00 14 20 // running cost base
      0E FF     // sprite ID
      0F 00     // capacity
      10 FF     // cargo type
      11 00     // cost factor
      12 00     // sound effect
      15 38     // speed in mph * 0.8
      16 00 00 00 00    // Bit mask of cargo types available for refitting
      17 16     // Callback flags bit mask
      1A 00     // Refit cost, using 25% of the purchase price cost base
      1B 00     // Retire vehicle early, this many years before the end of phase 2
      1C 02     // Miscellaneous vehicle flags     
      1D FF 03     // Refittable cargo classes 
      1E 01 00     // Non-refittable cargo classes
      1F 60 B3 0A 00   // Long format introduction date     
   23 * 24	 04 01 7F 01 04 "[Very Large Dolly]" 00
   24 * 4	 01 01 01 08
   25 Y:\Documents\OTTD graphics\HEQS_build\Full HEQS\sprites/dolly_very_large.pcx 34 10 01 24 12 -5 -16
   26 Y:\Documents\OTTD graphics\HEQS_build\Full HEQS\sprites/dolly_very_large.pcx 66 10 09 20 26 -12 -11
   27 Y:\Documents\OTTD graphics\HEQS_build\Full HEQS\sprites/dolly_very_large.pcx 98 10 01 16 36 -18 -8
   28 Y:\Documents\OTTD graphics\HEQS_build\Full HEQS\sprites/dolly_very_large.pcx 146 10 09 20 26 -4 -5
   29 Y:\Documents\OTTD graphics\HEQS_build\Full HEQS\sprites/dolly_very_large.pcx 178 10 01 24 12 -8 -8
   30 Y:\Documents\OTTD graphics\HEQS_build\Full HEQS\sprites/dolly_very_large.pcx 210 10 09 20 26 -26 -4
   31 Y:\Documents\OTTD graphics\HEQS_build\Full HEQS\sprites/dolly_very_large.pcx 242 10 01 16 36 -30 -9
   32 Y:\Documents\OTTD graphics\HEQS_build\Full HEQS\sprites/dolly_very_large.pcx 290 10 09 20 26 -16 -15
   33 * 9	 02 01 BB 01 01 00 00 00 00
   34 * 14	 02 01 AA 81 0C 00 FF 01 05 80 11 11 BB 00
   35 * 7	 03   // Action 3
      01  // RV 
      01  // Number of vehicles this action associate graphics with 
      04   // Vehicle ID
      00  // Number of different cargo types to support  
      AA 00
   // ----------------- end trailer dollies -------------------//


    // ------------ Medium Trailers ------------------ //

   // Medium Trailers

   36 * 67	 00 01 19 01 00
      00 00 00  // intro date
      02 20     // reliability
      03 19     // vehicle life
      04 23     // class life
      06 00     // climate
      07 05     // load amount
      08 E0     // speed in mph * 3.2
      09 08     // running cost factor
      0A 48 4C 00 00 13 00 14 20    // running cost base
      0E FF     // sprite ID
      0F 1E     // capacity
      10 FF     // cargo type
      11 00     // cost factor
      12 00     // sound effect
      15 38     // speed in mph * 0.8
      16 00 00 00 00    // Bit mask of cargo types available for refitting
      17 16     // Callback flags bit mask
      1A 00     // Refit cost, using 25% of the purchase price cost base
      1B 00     // Retire vehicle early, this many years before the end of phase 2
      1C 02     // Miscellaneous vehicle flags 
      1D FF 03      // Refittable cargo classes
      1E 01 00      // Non-refittable cargo classes
      1F 60 B3 0A 00    // Long format introduction date     
   37 * 30	 04 01 7F 01 00 "[Generic Medium Trailer]" 00
   // Medium Goods Trailer
   38 * 4	 01 01 01 08
   39 Y:\Documents\OTTD graphics\HEQS_build\Full HEQS\sprites\medium_trailers/box_trailer_med.pcx 34 15 01 24 12 -3 -10
   40 Y:\Documents\OTTD graphics\HEQS_build\Full HEQS\sprites\medium_trailers/box_trailer_med.pcx 66 15 01 20 26 -11 -9
   41 Y:\Documents\OTTD graphics\HEQS_build\Full HEQS\sprites\medium_trailers/box_trailer_med.pcx 98 15 01 16 36 -14 -6
   42 Y:\Documents\OTTD graphics\HEQS_build\Full HEQS\sprites\medium_trailers/box_trailer_med.pcx 146 15 01 20 26 -9 -7
   43 Y:\Documents\OTTD graphics\HEQS_build\Full HEQS\sprites\medium_trailers/box_trailer_med.pcx 178 15 01 24 12 -9 -16
   44 Y:\Documents\OTTD graphics\HEQS_build\Full HEQS\sprites\medium_trailers/box_trailer_med.pcx 210 15 01 20 26 -17 -7
   45 Y:\Documents\OTTD graphics\HEQS_build\Full HEQS\sprites\medium_trailers/box_trailer_med.pcx 242 15 01 16 36 -14 -6
   46 Y:\Documents\OTTD graphics\HEQS_build\Full HEQS\sprites\medium_trailers/box_trailer_med.pcx 290 15 01 20 26 -13 -10
   47 * 9	 02 01 05 01 01 00 00 00 00
   // ???????
   48 * 4	 01 01 01 08
   49 Y:\Documents\OTTD graphics\HEQS_build\Full HEQS\sprites/heqs2.pcx 434 40 01 18 8 -3 -10
   50 Y:\Documents\OTTD graphics\HEQS_build\Full HEQS\sprites/heqs2.pcx 450 40 09 16 20 -14 -7
   51 Y:\Documents\OTTD graphics\HEQS_build\Full HEQS\sprites/heqs2.pcx 482 40 01 12 28 -14 -6
   52 Y:\Documents\OTTD graphics\HEQS_build\Full HEQS\sprites/heqs2.pcx 530 40 09 16 20 -6 -8
   53 Y:\Documents\OTTD graphics\HEQS_build\Full HEQS\sprites/heqs2.pcx 562 40 01 18 8 -3 -10
   54 Y:\Documents\OTTD graphics\HEQS_build\Full HEQS\sprites/heqs2.pcx 578 40 09 16 20 -14 -8
   55 Y:\Documents\OTTD graphics\HEQS_build\Full HEQS\sprites/heqs2.pcx 610 40 01 12 28 -14 -6
   56 Y:\Documents\OTTD graphics\HEQS_build\Full HEQS\sprites/heqs2.pcx 658 40 09 16 20 -6 -7
   57 * 9	 02 01 0A 01 01 00 00 00 00
   // Medium end dump trailer - empty
   58 * 4	 01 01 11 08
   59 Y:\Documents\OTTD graphics\HEQS_build\Full HEQS\sprites\medium_trailers/end_dump_trailer_med.pcx 34 15 01 24 12 -3 -10
   60 Y:\Documents\OTTD graphics\HEQS_build\Full HEQS\sprites\medium_trailers/end_dump_trailer_med.pcx 66 15 09 20 26 -11 -9
   61 Y:\Documents\OTTD graphics\HEQS_build\Full HEQS\sprites\medium_trailers/end_dump_trailer_med.pcx 98 15 01 16 36 -14 -6
   62 Y:\Documents\OTTD graphics\HEQS_build\Full HEQS\sprites\medium_trailers/end_dump_trailer_med.pcx 146 15 09 20 26 -9 -7
   63 Y:\Documents\OTTD graphics\HEQS_build\Full HEQS\sprites\medium_trailers/end_dump_trailer_med.pcx 178 15 01 24 12 -9 -16
   64 Y:\Documents\OTTD graphics\HEQS_build\Full HEQS\sprites\medium_trailers/end_dump_trailer_med.pcx 210 15 09 20 26 -17 -7
   65 Y:\Documents\OTTD graphics\HEQS_build\Full HEQS\sprites\medium_trailers/end_dump_trailer_med.pcx 242 15 01 16 36 -30 -8
   66 Y:\Documents\OTTD graphics\HEQS_build\Full HEQS\sprites\medium_trailers/end_dump_trailer_med.pcx 290 15 09 20 26 -13 -10
   // Medium end dump - iron ore, loading  !! this isn't iron ore??
   67 Y:\Documents\OTTD graphics\HEQS_build\Full HEQS\sprites\medium_trailers/end_dump_trailer_med_iron.pcx 34 15 01 24 12 -3 -10
   68 Y:\Documents\OTTD graphics\HEQS_build\Full HEQS\sprites\medium_trailers/end_dump_trailer_med_iron.pcx 66 15 09 20 20 -11 -9
   69 Y:\Documents\OTTD graphics\HEQS_build\Full HEQS\sprites\medium_trailers/end_dump_trailer_med_iron.pcx 98 15 01 16 36 -14 -6
   70 Y:\Documents\OTTD graphics\HEQS_build\Full HEQS\sprites\medium_trailers/end_dump_trailer_med_iron.pcx 146 15 09 20 26 -9 -7
   71 Y:\Documents\OTTD graphics\HEQS_build\Full HEQS\sprites\medium_trailers/end_dump_trailer_med_iron.pcx 178 15 01 24 12 -9 -16
   72 Y:\Documents\OTTD graphics\HEQS_build\Full HEQS\sprites\medium_trailers/end_dump_trailer_med_iron.pcx 210 15 09 20 26 -17 -7
   73 Y:\Documents\OTTD graphics\HEQS_build\Full HEQS\sprites\medium_trailers/end_dump_trailer_med_iron.pcx 242 15 01 16 36 -30 -8
   74 Y:\Documents\OTTD graphics\HEQS_build\Full HEQS\sprites\medium_trailers/end_dump_trailer_med_iron.pcx 290 15 09 20 26 -13 -10
   // Medium end dump - iron ore, loaded  !! this isn't iron ore??
   75 Y:\Documents\OTTD graphics\HEQS_build\Full HEQS\sprites\medium_trailers/end_dump_trailer_med_iron.pcx 34 15 01 24 12 -3 -10
   76 Y:\Documents\OTTD graphics\HEQS_build\Full HEQS\sprites\medium_trailers/end_dump_trailer_med_iron.pcx 66 15 09 20 20 -11 -9
   77 Y:\Documents\OTTD graphics\HEQS_build\Full HEQS\sprites\medium_trailers/end_dump_trailer_med_iron.pcx 98 15 01 16 36 -14 -6
   78 Y:\Documents\OTTD graphics\HEQS_build\Full HEQS\sprites\medium_trailers/end_dump_trailer_med_iron.pcx 146 15 09 20 26 -9 -7
   79 Y:\Documents\OTTD graphics\HEQS_build\Full HEQS\sprites\medium_trailers/end_dump_trailer_med_iron.pcx 178 15 01 24 12 -9 -16
   80 Y:\Documents\OTTD graphics\HEQS_build\Full HEQS\sprites\medium_trailers/end_dump_trailer_med_iron.pcx 210 15 09 20 26 -17 -7
   81 Y:\Documents\OTTD graphics\HEQS_build\Full HEQS\sprites\medium_trailers/end_dump_trailer_med_iron.pcx 242 15 01 16 36 -30 -8
   82 Y:\Documents\OTTD graphics\HEQS_build\Full HEQS\sprites\medium_trailers/end_dump_trailer_med_iron.pcx 290 15 09 20 26 -13 -10
   // Medium end dump - coal, loading
   83 Y:\Documents\OTTD graphics\HEQS_build\Full HEQS\sprites\medium_trailers/end_dump_trailer_med_coal.pcx 34 15 01 24 12 -3 -10
   84 Y:\Documents\OTTD graphics\HEQS_build\Full HEQS\sprites\medium_trailers/end_dump_trailer_med_coal.pcx 66 15 09 20 26 -11 -9
   85 Y:\Documents\OTTD graphics\HEQS_build\Full HEQS\sprites\medium_trailers/end_dump_trailer_med_coal.pcx 98 15 01 16 36 -14 -6
   86 Y:\Documents\OTTD graphics\HEQS_build\Full HEQS\sprites\medium_trailers/end_dump_trailer_med_coal.pcx 146 15 09 20 26 -9 -7
   87 Y:\Documents\OTTD graphics\HEQS_build\Full HEQS\sprites\medium_trailers/end_dump_trailer_med_coal.pcx 178 15 01 24 12 -9 -16
   88 Y:\Documents\OTTD graphics\HEQS_build\Full HEQS\sprites\medium_trailers/end_dump_trailer_med_coal.pcx 210 15 09 20 26 -17 -7
   89 Y:\Documents\OTTD graphics\HEQS_build\Full HEQS\sprites\medium_trailers/end_dump_trailer_med_coal.pcx 242 15 01 16 36 -30 -8
   90 Y:\Documents\OTTD graphics\HEQS_build\Full HEQS\sprites\medium_trailers/end_dump_trailer_med_coal.pcx 290 15 09 20 26 -13 -10
   // Medium end dump - coal, loaded
   91 Y:\Documents\OTTD graphics\HEQS_build\Full HEQS\sprites\medium_trailers/end_dump_trailer_med_coal.pcx 34 15 01 24 12 -3 -10
   92 Y:\Documents\OTTD graphics\HEQS_build\Full HEQS\sprites\medium_trailers/end_dump_trailer_med_coal.pcx 66 15 09 20 26 -11 -9
   93 Y:\Documents\OTTD graphics\HEQS_build\Full HEQS\sprites\medium_trailers/end_dump_trailer_med_coal.pcx 98 15 01 16 36 -14 -6
   94 Y:\Documents\OTTD graphics\HEQS_build\Full HEQS\sprites\medium_trailers/end_dump_trailer_med_coal.pcx 146 15 09 20 26 -9 -7
   95 Y:\Documents\OTTD graphics\HEQS_build\Full HEQS\sprites\medium_trailers/end_dump_trailer_med_coal.pcx 178 15 01 24 12 -9 -16
   96 Y:\Documents\OTTD graphics\HEQS_build\Full HEQS\sprites\medium_trailers/end_dump_trailer_med_coal.pcx 210 15 09 20 26 -17 -7
   97 Y:\Documents\OTTD graphics\HEQS_build\Full HEQS\sprites\medium_trailers/end_dump_trailer_med_coal.pcx 242 15 01 16 36 -30 -8
   98 Y:\Documents\OTTD graphics\HEQS_build\Full HEQS\sprites\medium_trailers/end_dump_trailer_med_coal.pcx 290 15 09 20 26 -13 -10
   // Medium end dump - grain, loading
   99 Y:\Documents\OTTD graphics\HEQS_build\Full HEQS\sprites\medium_trailers/end_dump_trailer_med_grain.pcx 34 15 01 24 12 -3 -10
  100 Y:\Documents\OTTD graphics\HEQS_build\Full HEQS\sprites\medium_trailers/end_dump_trailer_med_grain.pcx 66 15 09 20 26 -11 -9
  101 Y:\Documents\OTTD graphics\HEQS_build\Full HEQS\sprites\medium_trailers/end_dump_trailer_med_grain.pcx 98 15 01 16 36 -14 -6
  102 Y:\Documents\OTTD graphics\HEQS_build\Full HEQS\sprites\medium_trailers/end_dump_trailer_med_grain.pcx 146 15 09 20 26 -9 -7
  103 Y:\Documents\OTTD graphics\HEQS_build\Full HEQS\sprites\medium_trailers/end_dump_trailer_med_grain.pcx 178 15 01 24 12 -9 -16
  104 Y:\Documents\OTTD graphics\HEQS_build\Full HEQS\sprites\medium_trailers/end_dump_trailer_med_grain.pcx 210 15 09 20 26 -17 -7
  105 Y:\Documents\OTTD graphics\HEQS_build\Full HEQS\sprites\medium_trailers/end_dump_trailer_med_grain.pcx 242 15 01 16 36 -30 -8
  106 Y:\Documents\OTTD graphics\HEQS_build\Full HEQS\sprites\medium_trailers/end_dump_trailer_med_grain.pcx 290 15 09 20 26 -13 -10
  // Medium end dump - grain, loaded
  107 Y:\Documents\OTTD graphics\HEQS_build\Full HEQS\sprites\medium_trailers/end_dump_trailer_med_grain.pcx 34 15 01 24 12 -3 -10
  108 Y:\Documents\OTTD graphics\HEQS_build\Full HEQS\sprites\medium_trailers/end_dump_trailer_med_grain.pcx 66 15 09 20 26 -11 -9
  109 Y:\Documents\OTTD graphics\HEQS_build\Full HEQS\sprites\medium_trailers/end_dump_trailer_med_grain.pcx 98 15 01 16 36 -14 -6
  110 Y:\Documents\OTTD graphics\HEQS_build\Full HEQS\sprites\medium_trailers/end_dump_trailer_med_grain.pcx 146 15 09 20 26 -9 -7
  111 Y:\Documents\OTTD graphics\HEQS_build\Full HEQS\sprites\medium_trailers/end_dump_trailer_med_grain.pcx 178 15 01 24 12 -9 -16
  112 Y:\Documents\OTTD graphics\HEQS_build\Full HEQS\sprites\medium_trailers/end_dump_trailer_med_grain.pcx 210 15 09 20 26 -17 -7
  113 Y:\Documents\OTTD graphics\HEQS_build\Full HEQS\sprites\medium_trailers/end_dump_trailer_med_grain.pcx 242 15 01 16 36 -30 -8
  114 Y:\Documents\OTTD graphics\HEQS_build\Full HEQS\sprites\medium_trailers/end_dump_trailer_med_grain.pcx 290 15 09 20 26 -13 -10
  // Medium end dump - clay, loading
  115 Y:\Documents\OTTD graphics\HEQS_build\Full HEQS\sprites\medium_trailers/end_dump_trailer_med_brown.pcx 34 15 01 24 12 -3 -10
  116 Y:\Documents\OTTD graphics\HEQS_build\Full HEQS\sprites\medium_trailers/end_dump_trailer_med_brown.pcx 66 15 09 20 26 -11 -9
  117 Y:\Documents\OTTD graphics\HEQS_build\Full HEQS\sprites\medium_trailers/end_dump_trailer_med_brown.pcx 98 15 01 16 36 -14 -6
  118 Y:\Documents\OTTD graphics\HEQS_build\Full HEQS\sprites\medium_trailers/end_dump_trailer_med_brown.pcx 146 15 09 20 26 -9 -7
  119 Y:\Documents\OTTD graphics\HEQS_build\Full HEQS\sprites\medium_trailers/end_dump_trailer_med_brown.pcx 178 15 01 24 12 -9 -16
  120 Y:\Documents\OTTD graphics\HEQS_build\Full HEQS\sprites\medium_trailers/end_dump_trailer_med_brown.pcx 210 15 09 20 26 -17 -7
  121 Y:\Documents\OTTD graphics\HEQS_build\Full HEQS\sprites\medium_trailers/end_dump_trailer_med_brown.pcx 242 15 01 16 36 -30 -8
  122 Y:\Documents\OTTD graphics\HEQS_build\Full HEQS\sprites\medium_trailers/end_dump_trailer_med_brown.pcx 290 15 09 20 26 -13 -10
  // Medium end dump - clay, loaded
  123 Y:\Documents\OTTD graphics\HEQS_build\Full HEQS\sprites\medium_trailers/end_dump_trailer_med_brown.pcx 34 15 01 24 12 -3 -10
  124 Y:\Documents\OTTD graphics\HEQS_build\Full HEQS\sprites\medium_trailers/end_dump_trailer_med_brown.pcx 66 15 09 20 26 -11 -9
  125 Y:\Documents\OTTD graphics\HEQS_build\Full HEQS\sprites\medium_trailers/end_dump_trailer_med_brown.pcx 98 15 01 16 36 -14 -6
  126 Y:\Documents\OTTD graphics\HEQS_build\Full HEQS\sprites\medium_trailers/end_dump_trailer_med_brown.pcx 146 15 09 20 26 -9 -7
  127 Y:\Documents\OTTD graphics\HEQS_build\Full HEQS\sprites\medium_trailers/end_dump_trailer_med_brown.pcx 178 15 01 24 12 -9 -16
  128 Y:\Documents\OTTD graphics\HEQS_build\Full HEQS\sprites\medium_trailers/end_dump_trailer_med_brown.pcx 210 15 09 20 26 -17 -7
  129 Y:\Documents\OTTD graphics\HEQS_build\Full HEQS\sprites\medium_trailers/end_dump_trailer_med_brown.pcx 242 15 01 16 36 -30 -8
  130 Y:\Documents\OTTD graphics\HEQS_build\Full HEQS\sprites\medium_trailers/end_dump_trailer_med_brown.pcx 290 15 09 20 26 -13 -10
  // Medium end dump - copper ore, loading
  131 Y:\Documents\OTTD graphics\HEQS_build\Full HEQS\sprites\medium_trailers/end_dump_trailer_med_red.pcx 34 15 01 24 12 -3 -10
  132 Y:\Documents\OTTD graphics\HEQS_build\Full HEQS\sprites\medium_trailers/end_dump_trailer_med_red.pcx 66 15 09 20 26 -11 -9
  133 Y:\Documents\OTTD graphics\HEQS_build\Full HEQS\sprites\medium_trailers/end_dump_trailer_med_red.pcx 98 15 01 16 36 -14 -6
  134 Y:\Documents\OTTD graphics\HEQS_build\Full HEQS\sprites\medium_trailers/end_dump_trailer_med_red.pcx 146 15 09 20 26 -9 -7
  135 Y:\Documents\OTTD graphics\HEQS_build\Full HEQS\sprites\medium_trailers/end_dump_trailer_med_red.pcx 178 15 01 24 12 -9 -16
  136 Y:\Documents\OTTD graphics\HEQS_build\Full HEQS\sprites\medium_trailers/end_dump_trailer_med_red.pcx 210 15 09 20 26 -17 -7
  137 Y:\Documents\OTTD graphics\HEQS_build\Full HEQS\sprites\medium_trailers/end_dump_trailer_med_red.pcx 242 15 01 16 36 -30 -8
  138 Y:\Documents\OTTD graphics\HEQS_build\Full HEQS\sprites\medium_trailers/end_dump_trailer_med_red.pcx 290 15 09 20 26 -13 -10
  // Medium end dump - copper ore, loaded
  139 Y:\Documents\OTTD graphics\HEQS_build\Full HEQS\sprites\medium_trailers/end_dump_trailer_med_red.pcx 34 15 01 24 12 -3 -10
  140 Y:\Documents\OTTD graphics\HEQS_build\Full HEQS\sprites\medium_trailers/end_dump_trailer_med_red.pcx 66 15 09 20 26 -11 -9
  141 Y:\Documents\OTTD graphics\HEQS_build\Full HEQS\sprites\medium_trailers/end_dump_trailer_med_red.pcx 98 15 01 16 36 -14 -6
  142 Y:\Documents\OTTD graphics\HEQS_build\Full HEQS\sprites\medium_trailers/end_dump_trailer_med_red.pcx 146 15 09 20 26 -9 -7
  143 Y:\Documents\OTTD graphics\HEQS_build\Full HEQS\sprites\medium_trailers/end_dump_trailer_med_red.pcx 178 15 01 24 12 -9 -16
  144 Y:\Documents\OTTD graphics\HEQS_build\Full HEQS\sprites\medium_trailers/end_dump_trailer_med_red.pcx 210 15 09 20 26 -17 -7
  145 Y:\Documents\OTTD graphics\HEQS_build\Full HEQS\sprites\medium_trailers/end_dump_trailer_med_red.pcx 242 15 01 16 36 -30 -8
  146 Y:\Documents\OTTD graphics\HEQS_build\Full HEQS\sprites\medium_trailers/end_dump_trailer_med_red.pcx 290 15 09 20 26 -13 -10
  // Medium end dump - sugar, loading
  147 Y:\Documents\OTTD graphics\HEQS_build\Full HEQS\sprites\medium_trailers/end_dump_trailer_med_white.pcx 34 15 01 24 12 -3 -10
  148 Y:\Documents\OTTD graphics\HEQS_build\Full HEQS\sprites\medium_trailers/end_dump_trailer_med_white.pcx 66 15 09 20 26 -11 -9
  149 Y:\Documents\OTTD graphics\HEQS_build\Full HEQS\sprites\medium_trailers/end_dump_trailer_med_white.pcx 98 15 01 16 36 -14 -6
  150 Y:\Documents\OTTD graphics\HEQS_build\Full HEQS\sprites\medium_trailers/end_dump_trailer_med_white.pcx 146 15 09 20 26 -9 -7
  151 Y:\Documents\OTTD graphics\HEQS_build\Full HEQS\sprites\medium_trailers/end_dump_trailer_med_white.pcx 178 15 01 24 12 -9 -16
  152 Y:\Documents\OTTD graphics\HEQS_build\Full HEQS\sprites\medium_trailers/end_dump_trailer_med_white.pcx 210 15 09 20 26 -17 -7
  153 Y:\Documents\OTTD graphics\HEQS_build\Full HEQS\sprites\medium_trailers/end_dump_trailer_med_white.pcx 242 15 01 16 36 -30 -8
  154 Y:\Documents\OTTD graphics\HEQS_build\Full HEQS\sprites\medium_trailers/end_dump_trailer_med_white.pcx 290 15 09 20 26 -13 -10
  // Medium end dump - sugar, loaded
  155 Y:\Documents\OTTD graphics\HEQS_build\Full HEQS\sprites\medium_trailers/end_dump_trailer_med_white.pcx 34 15 01 24 12 -3 -10
  156 Y:\Documents\OTTD graphics\HEQS_build\Full HEQS\sprites\medium_trailers/end_dump_trailer_med_white.pcx 66 15 09 20 26 -11 -9
  157 Y:\Documents\OTTD graphics\HEQS_build\Full HEQS\sprites\medium_trailers/end_dump_trailer_med_white.pcx 98 15 01 16 36 -14 -6
  158 Y:\Documents\OTTD graphics\HEQS_build\Full HEQS\sprites\medium_trailers/end_dump_trailer_med_white.pcx 146 15 09 20 26 -9 -7
  159 Y:\Documents\OTTD graphics\HEQS_build\Full HEQS\sprites\medium_trailers/end_dump_trailer_med_white.pcx 178 15 01 24 12 -9 -16
  160 Y:\Documents\OTTD graphics\HEQS_build\Full HEQS\sprites\medium_trailers/end_dump_trailer_med_white.pcx 210 15 09 20 26 -17 -7
  161 Y:\Documents\OTTD graphics\HEQS_build\Full HEQS\sprites\medium_trailers/end_dump_trailer_med_white.pcx 242 15 01 16 36 -30 -8
  162 Y:\Documents\OTTD graphics\HEQS_build\Full HEQS\sprites\medium_trailers/end_dump_trailer_med_white.pcx 290 15 09 20 26 -13 -10
  // Medium end dump - gravel, loading
  163 Y:\Documents\OTTD graphics\HEQS_build\Full HEQS\sprites\medium_trailers/end_dump_trailer_med_grey.pcx 34 15 01 24 12 -3 -10
  164 Y:\Documents\OTTD graphics\HEQS_build\Full HEQS\sprites\medium_trailers/end_dump_trailer_med_grey.pcx 66 15 09 20 26 -11 -9
  165 Y:\Documents\OTTD graphics\HEQS_build\Full HEQS\sprites\medium_trailers/end_dump_trailer_med_grey.pcx 98 15 01 16 36 -14 -6
  166 Y:\Documents\OTTD graphics\HEQS_build\Full HEQS\sprites\medium_trailers/end_dump_trailer_med_grey.pcx 146 15 09 20 26 -9 -7
  167 Y:\Documents\OTTD graphics\HEQS_build\Full HEQS\sprites\medium_trailers/end_dump_trailer_med_grey.pcx 178 15 01 24 12 -9 -16
  168 Y:\Documents\OTTD graphics\HEQS_build\Full HEQS\sprites\medium_trailers/end_dump_trailer_med_grey.pcx 210 15 09 20 26 -17 -7
  169 Y:\Documents\OTTD graphics\HEQS_build\Full HEQS\sprites\medium_trailers/end_dump_trailer_med_grey.pcx 242 15 01 16 36 -30 -8
  170 Y:\Documents\OTTD graphics\HEQS_build\Full HEQS\sprites\medium_trailers/end_dump_trailer_med_grey.pcx 290 15 09 20 26 -13 -10
  // Medium end dump - gravel, loaded
  171 Y:\Documents\OTTD graphics\HEQS_build\Full HEQS\sprites\medium_trailers/end_dump_trailer_med_grey.pcx 34 15 01 24 12 -3 -10
  172 Y:\Documents\OTTD graphics\HEQS_build\Full HEQS\sprites\medium_trailers/end_dump_trailer_med_grey.pcx 66 15 09 20 26 -11 -9
  173 Y:\Documents\OTTD graphics\HEQS_build\Full HEQS\sprites\medium_trailers/end_dump_trailer_med_grey.pcx 98 15 01 16 36 -14 -6
  174 Y:\Documents\OTTD graphics\HEQS_build\Full HEQS\sprites\medium_trailers/end_dump_trailer_med_grey.pcx 146 15 09 20 26 -9 -7
  175 Y:\Documents\OTTD graphics\HEQS_build\Full HEQS\sprites\medium_trailers/end_dump_trailer_med_grey.pcx 178 15 01 24 12 -9 -16
  176 Y:\Documents\OTTD graphics\HEQS_build\Full HEQS\sprites\medium_trailers/end_dump_trailer_med_grey.pcx 210 15 09 20 26 -17 -7
  177 Y:\Documents\OTTD graphics\HEQS_build\Full HEQS\sprites\medium_trailers/end_dump_trailer_med_grey.pcx 242 15 01 16 36 -30 -8
  178 Y:\Documents\OTTD graphics\HEQS_build\Full HEQS\sprites\medium_trailers/end_dump_trailer_med_grey.pcx 290 15 09 20 26 -13 -10
  // Medium end dump - ??, loading
  179 Y:\Documents\OTTD graphics\HEQS_build\Full HEQS\sprites\medium_trailers/end_dump_trailer_med.pcx 34 15 01 24 12 -3 -10
  180 Y:\Documents\OTTD graphics\HEQS_build\Full HEQS\sprites\medium_trailers/end_dump_trailer_med.pcx 66 15 09 20 26 -11 -9
  181 Y:\Documents\OTTD graphics\HEQS_build\Full HEQS\sprites\medium_trailers/end_dump_trailer_med.pcx 98 15 01 16 36 -14 -6
  182 Y:\Documents\OTTD graphics\HEQS_build\Full HEQS\sprites\medium_trailers/end_dump_trailer_med.pcx 146 15 09 20 26 -9 -7
  183 Y:\Documents\OTTD graphics\HEQS_build\Full HEQS\sprites\medium_trailers/end_dump_trailer_med.pcx 178 15 01 24 12 -9 -16
  184 Y:\Documents\OTTD graphics\HEQS_build\Full HEQS\sprites\medium_trailers/end_dump_trailer_med.pcx 210 15 09 20 26 -17 -7
  185 Y:\Documents\OTTD graphics\HEQS_build\Full HEQS\sprites\medium_trailers/end_dump_trailer_med.pcx 242 15 01 16 36 -30 -8
  186 Y:\Documents\OTTD graphics\HEQS_build\Full HEQS\sprites\medium_trailers/end_dump_trailer_med.pcx 290 15 09 20 26 -13 -10
  // Medium end dump - ??, loaded
  187 Y:\Documents\OTTD graphics\HEQS_build\Full HEQS\sprites\medium_trailers/end_dump_trailer_med.pcx 34 15 01 24 12 -3 -10
  188 Y:\Documents\OTTD graphics\HEQS_build\Full HEQS\sprites\medium_trailers/end_dump_trailer_med.pcx 66 15 09 20 26 -11 -9
  189 Y:\Documents\OTTD graphics\HEQS_build\Full HEQS\sprites\medium_trailers/end_dump_trailer_med.pcx 98 15 01 16 36 -14 -6
  190 Y:\Documents\OTTD graphics\HEQS_build\Full HEQS\sprites\medium_trailers/end_dump_trailer_med.pcx 146 15 09 20 26 -9 -7
  191 Y:\Documents\OTTD graphics\HEQS_build\Full HEQS\sprites\medium_trailers/end_dump_trailer_med.pcx 178 15 01 24 12 -9 -16
  192 Y:\Documents\OTTD graphics\HEQS_build\Full HEQS\sprites\medium_trailers/end_dump_trailer_med.pcx 210 15 09 20 26 -17 -7
  193 Y:\Documents\OTTD graphics\HEQS_build\Full HEQS\sprites\medium_trailers/end_dump_trailer_med.pcx 242 15 01 16 36 -30 -8
  194 Y:\Documents\OTTD graphics\HEQS_build\Full HEQS\sprites\medium_trailers/end_dump_trailer_med.pcx 290 15 09 20 26 -13 -10
  195 * 17	 02 01 08 03 03 00 00 01 00 02 00 00 00 01 00 02 00
  196 * 17	 02 01 01 03 03 00 00 03 00 04 00 00 00 03 00 04 00
  197 * 17	 02 01 06 03 03 00 00 05 00 06 00 00 00 05 00 06 00
  198 * 17	 02 01 0E 03 03 00 00 07 00 08 00 00 00 07 00 08 00
  199 * 17	 02 01 17 03 03 00 00 09 00 0A 00 00 00 09 00 0A 00
  200 * 17	 02 01 11 03 03 00 00 0B 00 0C 00 00 00 0B 00 0C 00
  201 * 17	 02 01 FF 03 03 00 00 0D 00 0E 00 00 00 0D 00 0E 00
  202 * 17	 02 01 15 03 03 00 00 0F 00 10 00 00 00 0F 00 10 00
  // Medium flat trailer / (also stake trailer ??)
  203 * 4	 01 01 12 08
  // Medium flat trailer - empty
  204 Y:\Documents\OTTD graphics\HEQS_build\Full HEQS\sprites\medium_trailers/flat_trailer_med.pcx 34 15 01 24 12 -3 -10
  205 Y:\Documents\OTTD graphics\HEQS_build\Full HEQS\sprites\medium_trailers/flat_trailer_med.pcx 66 15 09 20 26 -11 -9
  206 Y:\Documents\OTTD graphics\HEQS_build\Full HEQS\sprites\medium_trailers/flat_trailer_med.pcx 98 15 01 16 36 -14 -6
  207 Y:\Documents\OTTD graphics\HEQS_build\Full HEQS\sprites\medium_trailers/flat_trailer_med.pcx 146 15 09 20 26 -9 -7
  208 Y:\Documents\OTTD graphics\HEQS_build\Full HEQS\sprites\medium_trailers/flat_trailer_med.pcx 178 15 01 24 12 -9 -16
  209 Y:\Documents\OTTD graphics\HEQS_build\Full HEQS\sprites\medium_trailers/flat_trailer_med.pcx 210 15 09 20 26 -17 -7
  210 Y:\Documents\OTTD graphics\HEQS_build\Full HEQS\sprites\medium_trailers/flat_trailer_med.pcx 242 15 01 16 36 -30 -8
  211 Y:\Documents\OTTD graphics\HEQS_build\Full HEQS\sprites\medium_trailers/flat_trailer_med.pcx 290 15 09 20 26 -13 -10
  // Medium flat trailer - steel, loading  
  212 Y:\Documents\OTTD graphics\HEQS_build\Full HEQS\sprites\medium_trailers/flat_trailer_med_steel.pcx 34 15 01 24 12 -3 -10
  213 Y:\Documents\OTTD graphics\HEQS_build\Full HEQS\sprites\medium_trailers/flat_trailer_med_steel.pcx 66 15 09 20 26 -11 -9
  214 Y:\Documents\OTTD graphics\HEQS_build\Full HEQS\sprites\medium_trailers/flat_trailer_med_steel.pcx 98 15 01 16 36 -14 -6
  215 Y:\Documents\OTTD graphics\HEQS_build\Full HEQS\sprites\medium_trailers/flat_trailer_med_steel.pcx 146 15 09 20 26 -9 -7
  216 Y:\Documents\OTTD graphics\HEQS_build\Full HEQS\sprites\medium_trailers/flat_trailer_med_steel.pcx 178 15 01 24 12 -9 -16
  217 Y:\Documents\OTTD graphics\HEQS_build\Full HEQS\sprites\medium_trailers/flat_trailer_med_steel.pcx 210 15 09 20 26 -17 -7
  218 Y:\Documents\OTTD graphics\HEQS_build\Full HEQS\sprites\medium_trailers/flat_trailer_med_steel.pcx 242 15 01 16 36 -30 -8
  219 Y:\Documents\OTTD graphics\HEQS_build\Full HEQS\sprites\medium_trailers/flat_trailer_med_steel.pcx 290 15 09 20 26 -13 -10
  // Medium flat trailer - steel, loaded  
  220 Y:\Documents\OTTD graphics\HEQS_build\Full HEQS\sprites\medium_trailers/flat_trailer_med_steel.pcx 34 15 01 24 12 -3 -10
  221 Y:\Documents\OTTD graphics\HEQS_build\Full HEQS\sprites\medium_trailers/flat_trailer_med_steel.pcx 66 15 09 20 26 -11 -9
  222 Y:\Documents\OTTD graphics\HEQS_build\Full HEQS\sprites\medium_trailers/flat_trailer_med_steel.pcx 98 15 01 16 36 -14 -6
  223 Y:\Documents\OTTD graphics\HEQS_build\Full HEQS\sprites\medium_trailers/flat_trailer_med_steel.pcx 146 15 09 20 26 -9 -7
  224 Y:\Documents\OTTD graphics\HEQS_build\Full HEQS\sprites\medium_trailers/flat_trailer_med_steel.pcx 178 15 01 24 12 -9 -16
  225 Y:\Documents\OTTD graphics\HEQS_build\Full HEQS\sprites\medium_trailers/flat_trailer_med_steel.pcx 210 15 09 20 26 -17 -7
  226 Y:\Documents\OTTD graphics\HEQS_build\Full HEQS\sprites\medium_trailers/flat_trailer_med_steel.pcx 242 15 01 16 36 -30 -8
  227 Y:\Documents\OTTD graphics\HEQS_build\Full HEQS\sprites\medium_trailers/flat_trailer_med_steel.pcx 290 15 09 20 26 -13 -10
  // Medium flat trailer - paper, loading  
  228 Y:\Documents\OTTD graphics\HEQS_build\Full HEQS\sprites\medium_trailers/flat_trailer_med_paper.pcx 34 15 01 24 12 -3 -10
  229 Y:\Documents\OTTD graphics\HEQS_build\Full HEQS\sprites\medium_trailers/flat_trailer_med_paper.pcx 66 15 09 20 26 -11 -9
  230 Y:\Documents\OTTD graphics\HEQS_build\Full HEQS\sprites\medium_trailers/flat_trailer_med_paper.pcx 98 15 01 16 36 -14 -6
  231 Y:\Documents\OTTD graphics\HEQS_build\Full HEQS\sprites\medium_trailers/flat_trailer_med_paper.pcx 146 15 09 20 26 -9 -7
  232 Y:\Documents\OTTD graphics\HEQS_build\Full HEQS\sprites\medium_trailers/flat_trailer_med_paper.pcx 178 15 01 24 12 -9 -16
  233 Y:\Documents\OTTD graphics\HEQS_build\Full HEQS\sprites\medium_trailers/flat_trailer_med_paper.pcx 210 15 09 20 26 -17 -7
  234 Y:\Documents\OTTD graphics\HEQS_build\Full HEQS\sprites\medium_trailers/flat_trailer_med_paper.pcx 242 15 01 16 36 -30 -8
  235 Y:\Documents\OTTD graphics\HEQS_build\Full HEQS\sprites\medium_trailers/flat_trailer_med_paper.pcx 290 15 09 20 26 -13 -10
  // Medium flat trailer - paper, loaded  
  236 Y:\Documents\OTTD graphics\HEQS_build\Full HEQS\sprites\medium_trailers/flat_trailer_med_paper.pcx 34 15 01 24 12 -3 -10
  237 Y:\Documents\OTTD graphics\HEQS_build\Full HEQS\sprites\medium_trailers/flat_trailer_med_paper.pcx 66 15 09 20 26 -11 -9
  238 Y:\Documents\OTTD graphics\HEQS_build\Full HEQS\sprites\medium_trailers/flat_trailer_med_paper.pcx 98 15 01 16 36 -14 -6
  239 Y:\Documents\OTTD graphics\HEQS_build\Full HEQS\sprites\medium_trailers/flat_trailer_med_paper.pcx 146 15 09 20 26 -9 -7
  240 Y:\Documents\OTTD graphics\HEQS_build\Full HEQS\sprites\medium_trailers/flat_trailer_med_paper.pcx 178 15 01 24 12 -9 -16
  241 Y:\Documents\OTTD graphics\HEQS_build\Full HEQS\sprites\medium_trailers/flat_trailer_med_paper.pcx 210 15 09 20 26 -17 -7
  242 Y:\Documents\OTTD graphics\HEQS_build\Full HEQS\sprites\medium_trailers/flat_trailer_med_paper.pcx 242 15 01 16 36 -30 -8
  243 Y:\Documents\OTTD graphics\HEQS_build\Full HEQS\sprites\medium_trailers/flat_trailer_med.pcx 290 15 09 20 26 -13 -10
  // Medium stake trailer - empty
  244 Y:\Documents\OTTD graphics\HEQS_build\Full HEQS\sprites\medium_trailers/stake_trailer_med.pcx 34 15 01 24 12 -3 -10
  245 Y:\Documents\OTTD graphics\HEQS_build\Full HEQS\sprites\medium_trailers/stake_trailer_med.pcx 66 15 09 20 26 -11 -9
  246 Y:\Documents\OTTD graphics\HEQS_build\Full HEQS\sprites\medium_trailers/stake_trailer_med.pcx 98 15 01 16 36 -14 -6
  247 Y:\Documents\OTTD graphics\HEQS_build\Full HEQS\sprites\medium_trailers/stake_trailer_med.pcx 146 15 09 20 26 -9 -7
  248 Y:\Documents\OTTD graphics\HEQS_build\Full HEQS\sprites\medium_trailers/stake_trailer_med.pcx 178 15 01 24 12 -9 -16
  249 Y:\Documents\OTTD graphics\HEQS_build\Full HEQS\sprites\medium_trailers/stake_trailer_med.pcx 210 15 09 20 26 -17 -7
  250 Y:\Documents\OTTD graphics\HEQS_build\Full HEQS\sprites\medium_trailers/stake_trailer_med.pcx 242 15 01 16 36 -30 -8
  251 Y:\Documents\OTTD graphics\HEQS_build\Full HEQS\sprites\medium_trailers/stake_trailer_med.pcx 290 15 09 20 26 -13 -10
  // Medium stake trailer - wood, loading  
  252 Y:\Documents\OTTD graphics\HEQS_build\Full HEQS\sprites\medium_trailers/stake_trailer_med_logs.pcx 34 15 01 24 12 -3 -10
  253 Y:\Documents\OTTD graphics\HEQS_build\Full HEQS\sprites\medium_trailers/stake_trailer_med_logs.pcx 66 15 09 20 26 -11 -9
  254 Y:\Documents\OTTD graphics\HEQS_build\Full HEQS\sprites\medium_trailers/stake_trailer_med_logs.pcx 98 15 01 16 36 -14 -6
  255 Y:\Documents\OTTD graphics\HEQS_build\Full HEQS\sprites\medium_trailers/stake_trailer_med_logs.pcx 146 15 09 20 26 -9 -7
  256 Y:\Documents\OTTD graphics\HEQS_build\Full HEQS\sprites\medium_trailers/stake_trailer_med_logs.pcx 178 15 01 24 12 -9 -16
  257 Y:\Documents\OTTD graphics\HEQS_build\Full HEQS\sprites\medium_trailers/stake_trailer_med_logs.pcx 210 15 09 20 26 -17 -7
  258 Y:\Documents\OTTD graphics\HEQS_build\Full HEQS\sprites\medium_trailers/stake_trailer_med_logs.pcx 242 15 01 16 36 -30 -8
  259 Y:\Documents\OTTD graphics\HEQS_build\Full HEQS\sprites\medium_trailers/stake_trailer_med_logs.pcx 290 15 09 20 26 -13 -10
  // Medium stake trailer - wood, loaded  
  260 Y:\Documents\OTTD graphics\HEQS_build\Full HEQS\sprites\medium_trailers/stake_trailer_med_logs.pcx 34 15 01 24 12 -3 -10
  261 Y:\Documents\OTTD graphics\HEQS_build\Full HEQS\sprites\medium_trailers/stake_trailer_med_logs.pcx 66 15 09 20 26 -11 -9
  262 Y:\Documents\OTTD graphics\HEQS_build\Full HEQS\sprites\medium_trailers/stake_trailer_med_logs.pcx 98 15 01 16 36 -14 -6
  263 Y:\Documents\OTTD graphics\HEQS_build\Full HEQS\sprites\medium_trailers/stake_trailer_med_logs.pcx 146 15 09 20 26 -9 -7
  264 Y:\Documents\OTTD graphics\HEQS_build\Full HEQS\sprites\medium_trailers/stake_trailer_med_logs.pcx 178 15 01 24 12 -9 -16
  265 Y:\Documents\OTTD graphics\HEQS_build\Full HEQS\sprites\medium_trailers/stake_trailer_med_logs.pcx 210 15 09 20 26 -17 -7
  266 Y:\Documents\OTTD graphics\HEQS_build\Full HEQS\sprites\medium_trailers/stake_trailer_med_logs.pcx 242 15 01 16 36 -30 -8
  267 Y:\Documents\OTTD graphics\HEQS_build\Full HEQS\sprites\medium_trailers/stake_trailer_med_logs.pcx 290 15 09 20 26 -13 -10
 // Medium flat trailer - livestock, loading  
  268 Y:\Documents\OTTD graphics\HEQS_build\Full HEQS\sprites\medium_trailers/flat_trailer_med_livestock.pcx 34 15 01 24 12 -3 -10
  269 Y:\Documents\OTTD graphics\HEQS_build\Full HEQS\sprites\medium_trailers/flat_trailer_med_livestock.pcx 66 15 09 20 26 -11 -9
  270 Y:\Documents\OTTD graphics\HEQS_build\Full HEQS\sprites\medium_trailers/flat_trailer_med_livestock.pcx 98 15 01 16 36 -14 -6
  271 Y:\Documents\OTTD graphics\HEQS_build\Full HEQS\sprites\medium_trailers/flat_trailer_med_livestock.pcx 146 15 09 20 26 -9 -7
  272 Y:\Documents\OTTD graphics\HEQS_build\Full HEQS\sprites\medium_trailers/flat_trailer_med_livestock.pcx 178 15 01 24 12 -9 -16
  273 Y:\Documents\OTTD graphics\HEQS_build\Full HEQS\sprites\medium_trailers/flat_trailer_med_livestock.pcx 210 15 09 20 26 -17 -7
  274 Y:\Documents\OTTD graphics\HEQS_build\Full HEQS\sprites\medium_trailers/flat_trailer_med_livestock.pcx 242 15 01 16 36 -30 -8
  275 Y:\Documents\OTTD graphics\HEQS_build\Full HEQS\sprites\medium_trailers/flat_trailer_med_livestock.pcx 290 15 09 20 26 -13 -10
 // Medium flat trailer - livestock, loaded
  276 Y:\Documents\OTTD graphics\HEQS_build\Full HEQS\sprites\medium_trailers/flat_trailer_med_livestock.pcx 34 15 01 24 12 -3 -10
  277 Y:\Documents\OTTD graphics\HEQS_build\Full HEQS\sprites\medium_trailers/flat_trailer_med_livestock.pcx 66 15 09 20 26 -11 -9
  278 Y:\Documents\OTTD graphics\HEQS_build\Full HEQS\sprites\medium_trailers/flat_trailer_med_livestock.pcx 98 15 01 16 36 -14 -6
  279 Y:\Documents\OTTD graphics\HEQS_build\Full HEQS\sprites\medium_trailers/flat_trailer_med_livestock.pcx 146 15 09 20 26 -9 -7
  280 Y:\Documents\OTTD graphics\HEQS_build\Full HEQS\sprites\medium_trailers/flat_trailer_med_livestock.pcx 178 15 01 24 12 -9 -16
  281 Y:\Documents\OTTD graphics\HEQS_build\Full HEQS\sprites\medium_trailers/flat_trailer_med_livestock.pcx 210 15 09 20 26 -17 -7
  282 Y:\Documents\OTTD graphics\HEQS_build\Full HEQS\sprites\medium_trailers/flat_trailer_med_livestock.pcx 242 15 01 16 36 -30 -8
  283 Y:\Documents\OTTD graphics\HEQS_build\Full HEQS\sprites\medium_trailers/flat_trailer_med_livestock.pcx 290 15 09 20 26 -13 -10
 // Medium flat trailer - ??, loading  
  284 Y:\Documents\OTTD graphics\HEQS_build\Full HEQS\sprites\medium_trailers/flat_trailer_med.pcx 34 15 01 24 12 -3 -10
  285 Y:\Documents\OTTD graphics\HEQS_build\Full HEQS\sprites\medium_trailers/flat_trailer_med.pcx 66 15 09 20 26 -11 -9
  286 Y:\Documents\OTTD graphics\HEQS_build\Full HEQS\sprites\medium_trailers/flat_trailer_med.pcx 98 15 01 16 36 -14 -6
  287 Y:\Documents\OTTD graphics\HEQS_build\Full HEQS\sprites\medium_trailers/flat_trailer_med.pcx 146 15 09 20 26 -9 -7
  288 Y:\Documents\OTTD graphics\HEQS_build\Full HEQS\sprites\medium_trailers/flat_trailer_med.pcx 178 15 01 24 12 -9 -16
  289 Y:\Documents\OTTD graphics\HEQS_build\Full HEQS\sprites\medium_trailers/flat_trailer_med.pcx 210 15 09 20 26 -17 -7
  290 Y:\Documents\OTTD graphics\HEQS_build\Full HEQS\sprites\medium_trailers/flat_trailer_med.pcx 242 15 01 16 36 -30 -8
  291 Y:\Documents\OTTD graphics\HEQS_build\Full HEQS\sprites\medium_trailers/flat_trailer_med.pcx 290 15 09 20 26 -13 -10
 // Medium flat trailer - ??, loaded  
  292 Y:\Documents\OTTD graphics\HEQS_build\Full HEQS\sprites\medium_trailers/flat_trailer_med.pcx 34 15 01 24 12 -3 -10
  293 Y:\Documents\OTTD graphics\HEQS_build\Full HEQS\sprites\medium_trailers/flat_trailer_med.pcx 66 15 09 20 26 -11 -9
  294 Y:\Documents\OTTD graphics\HEQS_build\Full HEQS\sprites\medium_trailers/flat_trailer_med.pcx 98 15 01 16 36 -14 -6
  295 Y:\Documents\OTTD graphics\HEQS_build\Full HEQS\sprites\medium_trailers/flat_trailer_med.pcx 146 15 09 20 26 -9 -7
  296 Y:\Documents\OTTD graphics\HEQS_build\Full HEQS\sprites\medium_trailers/flat_trailer_med.pcx 178 15 01 24 12 -9 -16
  297 Y:\Documents\OTTD graphics\HEQS_build\Full HEQS\sprites\medium_trailers/flat_trailer_med.pcx 210 15 09 20 26 -17 -7
  298 Y:\Documents\OTTD graphics\HEQS_build\Full HEQS\sprites\medium_trailers/flat_trailer_med.pcx 242 15 01 16 36 -30 -8
  299 Y:\Documents\OTTD graphics\HEQS_build\Full HEQS\sprites\medium_trailers/flat_trailer_med.pcx 290 15 09 20 26 -13 -10
 // Medium flat trailer(s) - various toyland crap  
  300 Y:\Documents\OTTD graphics\HEQS_build\Full HEQS\sprites/heqs2.pcx 338 360 01 18 8 -3 -10
  301 Y:\Documents\OTTD graphics\HEQS_build\Full HEQS\sprites/heqs2.pcx 354 360 09 16 20 -14 -7
  302 Y:\Documents\OTTD graphics\HEQS_build\Full HEQS\sprites/heqs2.pcx 386 360 01 12 28 -14 -6
  303 Y:\Documents\OTTD graphics\HEQS_build\Full HEQS\sprites/heqs2.pcx 434 360 09 16 20 -6 -8
  304 Y:\Documents\OTTD graphics\HEQS_build\Full HEQS\sprites/heqs2.pcx 466 360 01 18 8 -3 -10
  305 Y:\Documents\OTTD graphics\HEQS_build\Full HEQS\sprites/heqs2.pcx 482 360 09 16 20 -14 -8
  306 Y:\Documents\OTTD graphics\HEQS_build\Full HEQS\sprites/heqs2.pcx 514 360 01 12 28 -14 -6
  307 Y:\Documents\OTTD graphics\HEQS_build\Full HEQS\sprites/heqs2.pcx 562 360 09 16 20 -6 -7
  308 Y:\Documents\OTTD graphics\HEQS_build\Full HEQS\sprites/heqs2.pcx 594 360 01 18 8 -3 -10
  309 Y:\Documents\OTTD graphics\HEQS_build\Full HEQS\sprites/heqs2.pcx 610 360 09 16 20 -14 -7
  310 Y:\Documents\OTTD graphics\HEQS_build\Full HEQS\sprites/heqs2.pcx 642 360 01 12 28 -14 -6
  311 Y:\Documents\OTTD graphics\HEQS_build\Full HEQS\sprites/heqs2.pcx 690 360 09 16 20 -6 -8
  312 Y:\Documents\OTTD graphics\HEQS_build\Full HEQS\sprites/heqs2.pcx 722 360 01 18 8 -3 -10
  313 Y:\Documents\OTTD graphics\HEQS_build\Full HEQS\sprites/heqs2.pcx 738 360 09 16 20 -14 -8
  314 Y:\Documents\OTTD graphics\HEQS_build\Full HEQS\sprites/heqs2.pcx 2 392 01 12 28 -14 -6
  315 Y:\Documents\OTTD graphics\HEQS_build\Full HEQS\sprites/heqs2.pcx 50 392 09 16 20 -6 -7
  316 Y:\Documents\OTTD graphics\HEQS_build\Full HEQS\sprites/heqs2.pcx 82 392 01 18 8 -3 -10
  317 Y:\Documents\OTTD graphics\HEQS_build\Full HEQS\sprites/heqs2.pcx 98 392 09 16 20 -14 -7
  318 Y:\Documents\OTTD graphics\HEQS_build\Full HEQS\sprites/heqs2.pcx 130 392 01 12 28 -14 -6
  319 Y:\Documents\OTTD graphics\HEQS_build\Full HEQS\sprites/heqs2.pcx 178 392 09 16 20 -6 -8
  320 Y:\Documents\OTTD graphics\HEQS_build\Full HEQS\sprites/heqs2.pcx 210 392 01 18 8 -3 -10
  321 Y:\Documents\OTTD graphics\HEQS_build\Full HEQS\sprites/heqs2.pcx 226 392 09 16 20 -14 -8
  322 Y:\Documents\OTTD graphics\HEQS_build\Full HEQS\sprites/heqs2.pcx 258 392 01 12 28 -14 -6
  323 Y:\Documents\OTTD graphics\HEQS_build\Full HEQS\sprites/heqs2.pcx 306 392 09 16 20 -6 -7
  324 Y:\Documents\OTTD graphics\HEQS_build\Full HEQS\sprites/heqs2.pcx 338 392 01 18 8 -3 -10
  325 Y:\Documents\OTTD graphics\HEQS_build\Full HEQS\sprites/heqs2.pcx 354 392 09 16 20 -14 -7
  326 Y:\Documents\OTTD graphics\HEQS_build\Full HEQS\sprites/heqs2.pcx 386 392 01 12 28 -14 -6
  327 Y:\Documents\OTTD graphics\HEQS_build\Full HEQS\sprites/heqs2.pcx 434 392 09 16 20 -6 -8
  328 Y:\Documents\OTTD graphics\HEQS_build\Full HEQS\sprites/heqs2.pcx 466 392 01 18 8 -3 -10
  329 Y:\Documents\OTTD graphics\HEQS_build\Full HEQS\sprites/heqs2.pcx 482 392 09 16 20 -14 -8
  330 Y:\Documents\OTTD graphics\HEQS_build\Full HEQS\sprites/heqs2.pcx 514 392 01 12 28 -14 -6
  331 Y:\Documents\OTTD graphics\HEQS_build\Full HEQS\sprites/heqs2.pcx 562 392 09 16 20 -6 -7
  332 Y:\Documents\OTTD graphics\HEQS_build\Full HEQS\sprites/heqs2.pcx 594 392 01 18 8 -3 -10
  333 Y:\Documents\OTTD graphics\HEQS_build\Full HEQS\sprites/heqs2.pcx 610 392 09 16 20 -14 -7
  334 Y:\Documents\OTTD graphics\HEQS_build\Full HEQS\sprites/heqs2.pcx 642 392 01 12 28 -14 -6
  335 Y:\Documents\OTTD graphics\HEQS_build\Full HEQS\sprites/heqs2.pcx 690 392 09 16 20 -6 -8
  336 Y:\Documents\OTTD graphics\HEQS_build\Full HEQS\sprites/heqs2.pcx 722 392 01 18 8 -3 -10
  337 Y:\Documents\OTTD graphics\HEQS_build\Full HEQS\sprites/heqs2.pcx 738 392 09 16 20 -14 -8
  338 Y:\Documents\OTTD graphics\HEQS_build\Full HEQS\sprites/heqs2.pcx 2 424 01 12 28 -14 -6
  339 Y:\Documents\OTTD graphics\HEQS_build\Full HEQS\sprites/heqs2.pcx 50 424 09 16 20 -6 -7
  340 Y:\Documents\OTTD graphics\HEQS_build\Full HEQS\sprites/heqs2.pcx 82 424 01 18 8 -3 -10
  341 Y:\Documents\OTTD graphics\HEQS_build\Full HEQS\sprites/heqs2.pcx 98 424 09 16 20 -14 -7
  342 Y:\Documents\OTTD graphics\HEQS_build\Full HEQS\sprites/heqs2.pcx 130 424 01 12 28 -14 -6
  343 Y:\Documents\OTTD graphics\HEQS_build\Full HEQS\sprites/heqs2.pcx 178 424 09 16 20 -6 -8
  344 Y:\Documents\OTTD graphics\HEQS_build\Full HEQS\sprites/heqs2.pcx 210 424 01 18 8 -3 -10
  345 Y:\Documents\OTTD graphics\HEQS_build\Full HEQS\sprites/heqs2.pcx 226 424 09 16 20 -14 -8
  346 Y:\Documents\OTTD graphics\HEQS_build\Full HEQS\sprites/heqs2.pcx 258 424 01 12 28 -14 -6
  347 Y:\Documents\OTTD graphics\HEQS_build\Full HEQS\sprites/heqs2.pcx 306 424 09 16 20 -6 -7
  348 * 17	 02 01 09 03 03 00 00 01 00 02 00 00 00 01 00 02 00
  349 * 17	 02 01 0B 03 03 00 00 03 00 04 00 00 00 03 00 04 00
  350 * 17	 02 01 07 03 03 05 00 06 00 07 00 05 00 06 00 07 00
  351 * 17	 02 01 04 03 03 00 00 07 00 08 00 00 00 07 00 08 00
  352 * 17	 02 01 18 03 03 00 00 09 00 0A 00 00 00 09 00 0A 00
  353 * 17	 02 01 1A 03 03 00 00 0B 00 0C 00 00 00 0B 00 0C 00
//!!Warning (94): Redefining ID FF not used since previous definition at sprite 201.
  354 * 17	 02 01 FF 03 03 00 00 0D 00 0E 00 00 00 0D 00 0E 00
  355 * 17	 02 01 13 03 03 00 00 0F 00 10 00 00 00 0F 00 10 00
  // Medium tank trailer
//!!Warning (97): Set 11 defined by the previous Action 1 (sprite 203) has not been used.
  356 * 4	 01 01 01 08
  357 Y:\Documents\OTTD graphics\HEQS_build\Full HEQS\sprites\medium_trailers/tank_trailer_med.pcx 34 15 01 24 12 -3 -10
  358 Y:\Documents\OTTD graphics\HEQS_build\Full HEQS\sprites\medium_trailers/tank_trailer_med.pcx 66 15 09 20 26 -11 -9
  359 Y:\Documents\OTTD graphics\HEQS_build\Full HEQS\sprites\medium_trailers/tank_trailer_med.pcx 98 15 01 16 36 -14 -6
  360 Y:\Documents\OTTD graphics\HEQS_build\Full HEQS\sprites\medium_trailers/tank_trailer_med.pcx 146 15 09 20 26 -9 -7
  361 Y:\Documents\OTTD graphics\HEQS_build\Full HEQS\sprites\medium_trailers/tank_trailer_med.pcx 178 15 01 24 12 -9 -16
  362 Y:\Documents\OTTD graphics\HEQS_build\Full HEQS\sprites\medium_trailers/tank_trailer_med.pcx 210 15 09 20 26 -17 -7
  363 Y:\Documents\OTTD graphics\HEQS_build\Full HEQS\sprites\medium_trailers/tank_trailer_med.pcx 242 15 01 16 36 -30 -8
  364 Y:\Documents\OTTD graphics\HEQS_build\Full HEQS\sprites\medium_trailers/tank_trailer_med.pcx 290 15 09 20 26 -13 -10
  365 * 9	 02 01 03 01 01 00 00 00 00
  366 * 4	 01 01 01 08
  367 Y:\Documents\OTTD graphics\HEQS_build\Full HEQS\sprites/heqs2.pcx 770 424 01 18 8 -3 -10
  368 Y:\Documents\OTTD graphics\HEQS_build\Full HEQS\sprites/heqs2.pcx 2 456 09 16 20 -14 -7
  369 Y:\Documents\OTTD graphics\HEQS_build\Full HEQS\sprites/heqs2.pcx 34 456 01 12 28 -14 -6
  370 Y:\Documents\OTTD graphics\HEQS_build\Full HEQS\sprites/heqs2.pcx 82 456 09 16 20 -6 -8
  371 Y:\Documents\OTTD graphics\HEQS_build\Full HEQS\sprites/heqs2.pcx 114 456 01 18 8 -3 -10
  372 Y:\Documents\OTTD graphics\HEQS_build\Full HEQS\sprites/heqs2.pcx 130 456 09 16 20 -14 -8
  373 Y:\Documents\OTTD graphics\HEQS_build\Full HEQS\sprites/heqs2.pcx 162 456 01 12 28 -14 -6
  374 Y:\Documents\OTTD graphics\HEQS_build\Full HEQS\sprites/heqs2.pcx 210 456 09 16 20 -6 -7
  375 * 9	 02 01 0C 01 01 00 00 00 00
//!!Error (62): Offset 6: ID 00 has not been defined.
//!!Error (62): Offset 12: ID 02 has not been defined.
//!!Warning (100): Default ID appears earlier in sprite.
//!!Warning (100): Default ID appears earlier in sprite.
//!!Warning (100): Default ID appears earlier in sprite.
  376 * 103	 03 01 01 00 20 00 00 00 01 01 00 02 02 00 03 03 00 04 04 00 05 05 00 06 06 00 07 07 00 08 08 00
	 09 09 00 0A 0A 00 0B 0B 00 0C 0C 00 0D 0C 00 0E 0E 00 0F 03 00 10 03 00 11 11 00 12 05 00 13 13
	 00 14 05 00 15 15 00 16 03 00 17 17 00 18 18 00 19 03 00 1A 1A 00 1B 06 00 1C 0A 00 1D 06 00 1E
	 07 00 1F 0A 00 05 00

   // ------------ end of Medium Trailers ------------------ //

  // -------------- Belly Dump / Logging Trailers --------------- //
  // Small belly dump trailer / Large log trailer 
  // Used by No. 6 Bulldozer(s)
  377 * 67	 00 01 19 01 05
    00 00 00  // intro date 
    02 20     // reliability 
    03 11     // vehicle life 
    04 23     // class life 
    06 00     // climate 
    07 05     // load amount 
    08 80     // speed in mph * 3.2
    09 1E     // running cost factor 
    0A 48 4C 00 00 13 00 14 20        // running cost base 
    0E FF     // sprite ID
    0F \b65     // capacity
    10 FF     // cargo type
    11 34     // cost factor
    12 17     // sound effect
    15 20     // speed in mph * 0.8
    16 C0 20 00 68     // Bit mask of cargo types available for refitting
    // flips 1D / 1E values: excludes fruit, grain, wheat, maize; includes wood, tropical wood
    17 16     // Callback flags bit mask
    1A 00     // Refit cost, using 25% of the purchase price cost base
    1B 00     // Retire vehicle early, this many years before the end of phase 2
    1C 02     // Miscellaneous vehicle flags
    1D 10 00          // Refittable cargo classes
    1E 00 00         // Non-refittable cargo classes
    1F 60 B3 0A 00    // Long format introduction date  
  378 * 6	 07 83 01 \7! 02 01 // tropic only
  379 * 7	 00 01 01 01 05 10 08// copper ore default
  380 * 42	 04 01 7F 01 05 "Small Belly Dump / Large Log Trailer" 00
  381 * 4	 01 01 05 08 
  // Small Belly dump empty
  382 Y:\Documents\OTTD graphics\HEQS_build\Full HEQS\sprites\belly_dump_trailers/belly_dump_trailer_small.pcx 34 10 01 24 12 -5 -16
  383 Y:\Documents\OTTD graphics\HEQS_build\Full HEQS\sprites\belly_dump_trailers/belly_dump_trailer_small.pcx 66 10 09 20 26 -8 -11
  384 Y:\Documents\OTTD graphics\HEQS_build\Full HEQS\sprites\belly_dump_trailers/belly_dump_trailer_small.pcx 98 10 01 16 36 -6 -10
  385 Y:\Documents\OTTD graphics\HEQS_build\Full HEQS\sprites\belly_dump_trailers/belly_dump_trailer_small.pcx 146 10 09 20 26 -10 -9
  386 Y:\Documents\OTTD graphics\HEQS_build\Full HEQS\sprites\belly_dump_trailers/belly_dump_trailer_small.pcx 178 10 01 24 12 -7 -17
  387 Y:\Documents\OTTD graphics\HEQS_build\Full HEQS\sprites\belly_dump_trailers/belly_dump_trailer_small.pcx 210 10 09 20 26 -17 -9
  388 Y:\Documents\OTTD graphics\HEQS_build\Full HEQS\sprites\belly_dump_trailers/belly_dump_trailer_small.pcx 242 10 01 16 36 -22 -10
  389 Y:\Documents\OTTD graphics\HEQS_build\Full HEQS\sprites\belly_dump_trailers/belly_dump_trailer_small.pcx 290 10 09 20 26 -13 -12
  // Small Belly Dump - coal loading
  390 Y:\Documents\OTTD graphics\HEQS_build\Full HEQS\sprites\belly_dump_trailers/belly_dump_trailer_small_coal_partial.pcx 34 10 01 24 12 -5 -16
  391 Y:\Documents\OTTD graphics\HEQS_build\Full HEQS\sprites\belly_dump_trailers/belly_dump_trailer_small_coal_partial.pcx 66 10 09 20 26 -8 -11
  392 Y:\Documents\OTTD graphics\HEQS_build\Full HEQS\sprites\belly_dump_trailers/belly_dump_trailer_small_coal_partial.pcx 98 10 01 16 36 -6 -10
  393 Y:\Documents\OTTD graphics\HEQS_build\Full HEQS\sprites\belly_dump_trailers/belly_dump_trailer_small_coal_partial.pcx 146 10 09 20 26 -10 -9
  394 Y:\Documents\OTTD graphics\HEQS_build\Full HEQS\sprites\belly_dump_trailers/belly_dump_trailer_small_coal_partial.pcx 178 10 01 24 12 -7 -17
  395 Y:\Documents\OTTD graphics\HEQS_build\Full HEQS\sprites\belly_dump_trailers/belly_dump_trailer_small_coal_partial.pcx 210 10 09 20 26 -17 -9
  396 Y:\Documents\OTTD graphics\HEQS_build\Full HEQS\sprites\belly_dump_trailers/belly_dump_trailer_small_coal_partial.pcx 242 10 01 16 36 -22 -10
  397 Y:\Documents\OTTD graphics\HEQS_build\Full HEQS\sprites\belly_dump_trailers/belly_dump_trailer_small_coal_partial.pcx 290 10 09 20 26 -13 -12
  // Small Belly Dump - coal loaded
  398 Y:\Documents\OTTD graphics\HEQS_build\Full HEQS\sprites\belly_dump_trailers/belly_dump_trailer_small_coal.pcx 34 10 01 24 12 -5 -16
  399 Y:\Documents\OTTD graphics\HEQS_build\Full HEQS\sprites\belly_dump_trailers/belly_dump_trailer_small_coal.pcx 66 10 09 20 26 -8 -11
  400 Y:\Documents\OTTD graphics\HEQS_build\Full HEQS\sprites\belly_dump_trailers/belly_dump_trailer_small_coal.pcx 98 10 01 16 36 -6 -10
  401 Y:\Documents\OTTD graphics\HEQS_build\Full HEQS\sprites\belly_dump_trailers/belly_dump_trailer_small_coal.pcx 146 10 09 20 26 -10 -9
  402 Y:\Documents\OTTD graphics\HEQS_build\Full HEQS\sprites\belly_dump_trailers/belly_dump_trailer_small_coal.pcx 178 10 01 24 12 -7 -17
  403 Y:\Documents\OTTD graphics\HEQS_build\Full HEQS\sprites\belly_dump_trailers/belly_dump_trailer_small_coal.pcx 210 10 09 20 26 -17 -9
  404 Y:\Documents\OTTD graphics\HEQS_build\Full HEQS\sprites\belly_dump_trailers/belly_dump_trailer_small_coal.pcx 242 10 01 16 36 -22 -10
  405 Y:\Documents\OTTD graphics\HEQS_build\Full HEQS\sprites\belly_dump_trailers/belly_dump_trailer_small_coal.pcx 290 10 09 20 26 -13 -12
  // Small Belly Dump - iron loading
  406 Y:\Documents\OTTD graphics\HEQS_build\Full HEQS\sprites\belly_dump_trailers/belly_dump_trailer_small_iron_partial.pcx 34 10 01 24 12 -5 -16
  407 Y:\Documents\OTTD graphics\HEQS_build\Full HEQS\sprites\belly_dump_trailers/belly_dump_trailer_small_iron_partial.pcx 66 10 09 20 26 -8 -11
  408 Y:\Documents\OTTD graphics\HEQS_build\Full HEQS\sprites\belly_dump_trailers/belly_dump_trailer_small_iron_partial.pcx 98 10 01 16 36 -6 -10
  409 Y:\Documents\OTTD graphics\HEQS_build\Full HEQS\sprites\belly_dump_trailers/belly_dump_trailer_small_iron_partial.pcx 146 10 09 20 26 -10 -9
  410 Y:\Documents\OTTD graphics\HEQS_build\Full HEQS\sprites\belly_dump_trailers/belly_dump_trailer_small_iron_partial.pcx 178 10 01 24 12 -7 -17
  411 Y:\Documents\OTTD graphics\HEQS_build\Full HEQS\sprites\belly_dump_trailers/belly_dump_trailer_small_iron_partial.pcx 210 10 09 20 26 -17 -9
  412 Y:\Documents\OTTD graphics\HEQS_build\Full HEQS\sprites\belly_dump_trailers/belly_dump_trailer_small_iron_partial.pcx 242 10 01 16 36 -22 -10
  413 Y:\Documents\OTTD graphics\HEQS_build\Full HEQS\sprites\belly_dump_trailers/belly_dump_trailer_small_iron_partial.pcx 290 10 09 20 26 -13 -12
  // Small Belly Dump - iron loaded
  414 Y:\Documents\OTTD graphics\HEQS_build\Full HEQS\sprites\belly_dump_trailers/belly_dump_trailer_small_iron.pcx 34 10 01 24 12 -5 -16
  415 Y:\Documents\OTTD graphics\HEQS_build\Full HEQS\sprites\belly_dump_trailers/belly_dump_trailer_small_iron.pcx 66 10 09 20 26 -8 -11
  416 Y:\Documents\OTTD graphics\HEQS_build\Full HEQS\sprites\belly_dump_trailers/belly_dump_trailer_small_iron.pcx 98 10 01 16 36 -6 -10
  417 Y:\Documents\OTTD graphics\HEQS_build\Full HEQS\sprites\belly_dump_trailers/belly_dump_trailer_small_iron.pcx 146 10 09 20 26 -10 -9
  418 Y:\Documents\OTTD graphics\HEQS_build\Full HEQS\sprites\belly_dump_trailers/belly_dump_trailer_small_iron.pcx 178 10 01 24 12 -7 -17
  419 Y:\Documents\OTTD graphics\HEQS_build\Full HEQS\sprites\belly_dump_trailers/belly_dump_trailer_small_iron.pcx 210 10 09 20 26 -17 -9
  420 Y:\Documents\OTTD graphics\HEQS_build\Full HEQS\sprites\belly_dump_trailers/belly_dump_trailer_small_iron.pcx 242 10 01 16 36 -22 -10
  421 Y:\Documents\OTTD graphics\HEQS_build\Full HEQS\sprites\belly_dump_trailers/belly_dump_trailer_small_iron.pcx 290 10 09 20 26 -13 -12
  422 * 9	 02 01 AA //normal action2 defining graphics with no loading/loaded stages 
      01 // number loading states
      01 // number loaded states
      00 00 // loading sprites
      00 00 // moving sprites
  423 * 17	 02 01 01  // action 2 coal
      03 // number loading states
      03 // number loaded states
      00 00 01 00 02 00 // loading sprites
      00 00 01 00 02 00 // moving sprites
  424 * 17	 02 01 08  // action 2 iron
      03 // number loading states
      03 // number loaded states
      00 00 03 00 04 00 // loading sprites
      00 00 03 00 04 00 // moving sprites
  425 * 4	 01 01 03 08 
  // Large Log Trailer - empty
  426 Y:\Documents\OTTD graphics\HEQS_build\Full HEQS\sprites\log_trailers/large_single_log_trailer.pcx 34 10 01 24 12 -5 -16
  427 Y:\Documents\OTTD graphics\HEQS_build\Full HEQS\sprites\log_trailers/large_single_log_trailer.pcx 66 10 09 20 26 -8 -11
  428 Y:\Documents\OTTD graphics\HEQS_build\Full HEQS\sprites\log_trailers/large_single_log_trailer.pcx 98 10 01 16 36 -6 -10
  429 Y:\Documents\OTTD graphics\HEQS_build\Full HEQS\sprites\log_trailers/large_single_log_trailer.pcx 146 10 09 20 26 -10 -9
  430 Y:\Documents\OTTD graphics\HEQS_build\Full HEQS\sprites\log_trailers/large_single_log_trailer.pcx 178 10 01 24 12 -7 -17
  431 Y:\Documents\OTTD graphics\HEQS_build\Full HEQS\sprites\log_trailers/large_single_log_trailer.pcx 210 10 09 20 26 -17 -9
  432 Y:\Documents\OTTD graphics\HEQS_build\Full HEQS\sprites\log_trailers/large_single_log_trailer.pcx 242 10 01 16 36 -22 -10
  433 Y:\Documents\OTTD graphics\HEQS_build\Full HEQS\sprites\log_trailers/large_single_log_trailer.pcx 290 10 09 20 26 -13 -12
  // Large Log Trailer - loading
  434 Y:\Documents\OTTD graphics\HEQS_build\Full HEQS\sprites\log_trailers/large_single_log_trailer_loaded.pcx 34 10 01 24 12 -5 -16
  435 Y:\Documents\OTTD graphics\HEQS_build\Full HEQS\sprites\log_trailers/large_single_log_trailer_loaded.pcx 66 10 09 20 26 -8 -11
  436 Y:\Documents\OTTD graphics\HEQS_build\Full HEQS\sprites\log_trailers/large_single_log_trailer_loaded.pcx 98 10 01 16 36 -6 -10
  437 Y:\Documents\OTTD graphics\HEQS_build\Full HEQS\sprites\log_trailers/large_single_log_trailer_loaded.pcx 146 10 09 20 26 -10 -9
  438 Y:\Documents\OTTD graphics\HEQS_build\Full HEQS\sprites\log_trailers/large_single_log_trailer_loaded.pcx 178 10 01 24 12 -7 -17
  439 Y:\Documents\OTTD graphics\HEQS_build\Full HEQS\sprites\log_trailers/large_single_log_trailer_loaded.pcx 210 10 09 20 26 -17 -9
  440 Y:\Documents\OTTD graphics\HEQS_build\Full HEQS\sprites\log_trailers/large_single_log_trailer_loaded.pcx 242 10 01 16 36 -22 -10
  441 Y:\Documents\OTTD graphics\HEQS_build\Full HEQS\sprites\log_trailers/large_single_log_trailer_loaded.pcx 290 10 09 20 26 -13 -12
  // Large Log Trailer - loaded
  442 Y:\Documents\OTTD graphics\HEQS_build\Full HEQS\sprites\log_trailers/large_single_log_trailer_loaded.pcx 34 10 01 24 12 -5 -16
  443 Y:\Documents\OTTD graphics\HEQS_build\Full HEQS\sprites\log_trailers/large_single_log_trailer_loaded.pcx 66 10 09 20 26 -8 -11
  444 Y:\Documents\OTTD graphics\HEQS_build\Full HEQS\sprites\log_trailers/large_single_log_trailer_loaded.pcx 98 10 01 16 36 -6 -10
  445 Y:\Documents\OTTD graphics\HEQS_build\Full HEQS\sprites\log_trailers/large_single_log_trailer_loaded.pcx 146 10 09 20 26 -10 -9
  446 Y:\Documents\OTTD graphics\HEQS_build\Full HEQS\sprites\log_trailers/large_single_log_trailer_loaded.pcx 178 10 01 24 12 -7 -17
  447 Y:\Documents\OTTD graphics\HEQS_build\Full HEQS\sprites\log_trailers/large_single_log_trailer_loaded.pcx 210 10 09 20 26 -17 -9
  448 Y:\Documents\OTTD graphics\HEQS_build\Full HEQS\sprites\log_trailers/large_single_log_trailer_loaded.pcx 242 10 01 16 36 -22 -10
  449 Y:\Documents\OTTD graphics\HEQS_build\Full HEQS\sprites\log_trailers/large_single_log_trailer_loaded.pcx 290 10 09 20 26 -13 -12
  450 * 17	 02 01 07  // action 2 wood
      03 // number loading states
      03 // number loaded states
      00 00 01 00 02 00 // loading sprites
      00 00 01 00 02 00 // moving sprites
  451 * 16	 03   // Action 3
      01  // RV 
      01  // Number of vehicles this action associate graphics with 
      05   // Vehicle ID
      03   // Number of different cargo types to support  
      01   // Coal
      01 00   // Action 2 ID for coal
      07   // Wood
      07 00   // Action 2 ID for coal
      08   // Iron
      08 00   // Action 2 ID for iron
      AA 00


   // Medium belly dump trailer 
   // Used by Mt Rainier articulated dump truck
  452 * 67	 00 01 19 01 06
    00 00 00  // intro date 
    02 20     // reliability 
    03 11     // vehicle life 
    04 23     // class life 
    06 00     // climate 
    07 05     // load amount 
    08 80     // speed in mph * 3.2
    09 1E     // running cost factor 
    0A 48 4C 00 00 13 14 14 18        // running cost base 
    0E FF     // sprite ID
    0F \b90     // capacity
    10 FF     // cargo type
    11 34     // cost factor
    12 17     // sound effect
    15 20     // speed in mph * 0.8
    16 40 00 00 00     // Bit mask of cargo types available for refitting
    17 16     // Callback flags bit mask
    1A 00     // Refit cost, using 25% of the purchase price cost base
    1B 00     // Retire vehicle early, this many years before the end of phase 2
    1C 02     // Miscellaneous vehicle flags
    1D 10 00          // Refittable cargo classes
    1E 00 00          // Non-refittable cargo classes
    1F 60 B3 0A 00    // Long format introduction date  
  453 * 6	 07 83 01 \7! 02 01 // tropic only
  454 * 7	 00 01 01 01 06 10 08// copper ore default
  455 * 23	 04 01 7F 01 06 "Medium Belly Dump" 00
  456 * 4	 01 01 0D 08 
  // Medium Belly dump empty - uses small graphics for now
  457 Y:\Documents\OTTD graphics\HEQS_build\Full HEQS\sprites\belly_dump_trailers/belly_dump_trailer_small.pcx 34 10 01 24 12 -5 -16
  458 Y:\Documents\OTTD graphics\HEQS_build\Full HEQS\sprites\belly_dump_trailers/belly_dump_trailer_small.pcx 66 10 09 20 26 -8 -11
  459 Y:\Documents\OTTD graphics\HEQS_build\Full HEQS\sprites\belly_dump_trailers/belly_dump_trailer_small.pcx 98 10 01 16 36 -6 -10
  460 Y:\Documents\OTTD graphics\HEQS_build\Full HEQS\sprites\belly_dump_trailers/belly_dump_trailer_small.pcx 146 10 09 20 26 -10 -9
  461 Y:\Documents\OTTD graphics\HEQS_build\Full HEQS\sprites\belly_dump_trailers/belly_dump_trailer_small.pcx 178 10 01 24 12 -7 -17
  462 Y:\Documents\OTTD graphics\HEQS_build\Full HEQS\sprites\belly_dump_trailers/belly_dump_trailer_small.pcx 210 10 09 20 26 -17 -9
  463 Y:\Documents\OTTD graphics\HEQS_build\Full HEQS\sprites\belly_dump_trailers/belly_dump_trailer_small.pcx 242 10 01 16 36 -41 -9
  464 Y:\Documents\OTTD graphics\HEQS_build\Full HEQS\sprites\belly_dump_trailers/belly_dump_trailer_small.pcx 290 10 09 20 26 -13 -12
  // Medium Belly dump coal loading
  465 Y:\Documents\OTTD graphics\HEQS_build\Full HEQS\sprites\belly_dump_trailers/belly_dump_trailer_small_coal_partial.pcx 34 10 01 24 12 -5 -16
  466 Y:\Documents\OTTD graphics\HEQS_build\Full HEQS\sprites\belly_dump_trailers/belly_dump_trailer_small_coal_partial.pcx 66 10 09 20 26 -8 -11
  467 Y:\Documents\OTTD graphics\HEQS_build\Full HEQS\sprites\belly_dump_trailers/belly_dump_trailer_small_coal_partial.pcx 98 10 01 16 36 -6 -10
  468 Y:\Documents\OTTD graphics\HEQS_build\Full HEQS\sprites\belly_dump_trailers/belly_dump_trailer_small_coal_partial.pcx 146 10 09 20 26 -10 -9
  469 Y:\Documents\OTTD graphics\HEQS_build\Full HEQS\sprites\belly_dump_trailers/belly_dump_trailer_small_coal_partial.pcx 178 10 01 24 12 -7 -17
  470 Y:\Documents\OTTD graphics\HEQS_build\Full HEQS\sprites\belly_dump_trailers/belly_dump_trailer_small_coal_partial.pcx 210 10 09 20 26 -17 -9
  471 Y:\Documents\OTTD graphics\HEQS_build\Full HEQS\sprites\belly_dump_trailers/belly_dump_trailer_small_coal_partial.pcx 242 10 01 16 36 -41 -9
  472 Y:\Documents\OTTD graphics\HEQS_build\Full HEQS\sprites\belly_dump_trailers/belly_dump_trailer_small_coal_partial.pcx 290 10 09 20 26 -13 -12
  // Medium Belly dump coal loaded
  473 Y:\Documents\OTTD graphics\HEQS_build\Full HEQS\sprites\belly_dump_trailers/belly_dump_trailer_small_coal.pcx 34 10 01 24 12 -5 -16
  474 Y:\Documents\OTTD graphics\HEQS_build\Full HEQS\sprites\belly_dump_trailers/belly_dump_trailer_small_coal.pcx 66 10 09 20 26 -8 -11
  475 Y:\Documents\OTTD graphics\HEQS_build\Full HEQS\sprites\belly_dump_trailers/belly_dump_trailer_small_coal.pcx 98 10 01 16 36 -6 -10
  476 Y:\Documents\OTTD graphics\HEQS_build\Full HEQS\sprites\belly_dump_trailers/belly_dump_trailer_small_coal.pcx 146 10 09 20 26 -10 -9
  477 Y:\Documents\OTTD graphics\HEQS_build\Full HEQS\sprites\belly_dump_trailers/belly_dump_trailer_small_coal.pcx 178 10 01 24 12 -7 -17
  478 Y:\Documents\OTTD graphics\HEQS_build\Full HEQS\sprites\belly_dump_trailers/belly_dump_trailer_small_coal.pcx 210 10 09 20 26 -17 -9
  479 Y:\Documents\OTTD graphics\HEQS_build\Full HEQS\sprites\belly_dump_trailers/belly_dump_trailer_small_coal.pcx 242 10 01 16 36 -41 -9
  480 Y:\Documents\OTTD graphics\HEQS_build\Full HEQS\sprites\belly_dump_trailers/belly_dump_trailer_small_coal.pcx 290 10 09 20 26 -13 -12
  // Medium Belly dump iron loading 
  481 Y:\Documents\OTTD graphics\HEQS_build\Full HEQS\sprites\belly_dump_trailers/belly_dump_trailer_small_iron_partial.pcx 34 10 01 24 12 -5 -16
  482 Y:\Documents\OTTD graphics\HEQS_build\Full HEQS\sprites\belly_dump_trailers/belly_dump_trailer_small_iron_partial.pcx 66 10 09 20 26 -8 -11
  483 Y:\Documents\OTTD graphics\HEQS_build\Full HEQS\sprites\belly_dump_trailers/belly_dump_trailer_small_iron_partial.pcx 98 10 01 16 36 -6 -10
  484 Y:\Documents\OTTD graphics\HEQS_build\Full HEQS\sprites\belly_dump_trailers/belly_dump_trailer_small_iron_partial.pcx 146 10 09 20 26 -10 -9
  485 Y:\Documents\OTTD graphics\HEQS_build\Full HEQS\sprites\belly_dump_trailers/belly_dump_trailer_small_iron_partial.pcx 178 10 01 24 12 -7 -17
  486 Y:\Documents\OTTD graphics\HEQS_build\Full HEQS\sprites\belly_dump_trailers/belly_dump_trailer_small_iron_partial.pcx 210 10 09 20 26 -17 -9
  487 Y:\Documents\OTTD graphics\HEQS_build\Full HEQS\sprites\belly_dump_trailers/belly_dump_trailer_small_iron_partial.pcx 242 10 01 16 36 -41 -9
  488 Y:\Documents\OTTD graphics\HEQS_build\Full HEQS\sprites\belly_dump_trailers/belly_dump_trailer_small_iron_partial.pcx 290 10 09 20 26 -13 -12
  // Medium Belly dump iron loaded
  489 Y:\Documents\OTTD graphics\HEQS_build\Full HEQS\sprites\belly_dump_trailers/belly_dump_trailer_small_iron.pcx 34 10 01 24 12 -5 -16
  490 Y:\Documents\OTTD graphics\HEQS_build\Full HEQS\sprites\belly_dump_trailers/belly_dump_trailer_small_iron.pcx 66 10 09 20 26 -8 -11
  491 Y:\Documents\OTTD graphics\HEQS_build\Full HEQS\sprites\belly_dump_trailers/belly_dump_trailer_small_iron.pcx 98 10 01 16 36 -6 -10
  492 Y:\Documents\OTTD graphics\HEQS_build\Full HEQS\sprites\belly_dump_trailers/belly_dump_trailer_small_iron.pcx 146 10 09 20 26 -10 -9
  493 Y:\Documents\OTTD graphics\HEQS_build\Full HEQS\sprites\belly_dump_trailers/belly_dump_trailer_small_iron.pcx 178 10 01 24 12 -7 -17
  494 Y:\Documents\OTTD graphics\HEQS_build\Full HEQS\sprites\belly_dump_trailers/belly_dump_trailer_small_iron.pcx 210 10 09 20 26 -17 -9
  495 Y:\Documents\OTTD graphics\HEQS_build\Full HEQS\sprites\belly_dump_trailers/belly_dump_trailer_small_iron.pcx 242 10 01 16 36 -41 -9
  496 Y:\Documents\OTTD graphics\HEQS_build\Full HEQS\sprites\belly_dump_trailers/belly_dump_trailer_small_iron.pcx 290 10 09 20 26 -13 -12
  // Medium Belly dump brown loading
  497 Y:\Documents\OTTD graphics\HEQS_build\Full HEQS\sprites\belly_dump_trailers/belly_dump_trailer_small_brown_partial.pcx 34 10 01 24 12 -5 -16
  498 Y:\Documents\OTTD graphics\HEQS_build\Full HEQS\sprites\belly_dump_trailers/belly_dump_trailer_small_brown_partial.pcx 66 10 09 20 26 -8 -11
  499 Y:\Documents\OTTD graphics\HEQS_build\Full HEQS\sprites\belly_dump_trailers/belly_dump_trailer_small_brown_partial.pcx 98 10 01 16 36 -6 -10
  500 Y:\Documents\OTTD graphics\HEQS_build\Full HEQS\sprites\belly_dump_trailers/belly_dump_trailer_small_brown_partial.pcx 146 10 09 20 26 -10 -9
  501 Y:\Documents\OTTD graphics\HEQS_build\Full HEQS\sprites\belly_dump_trailers/belly_dump_trailer_small_brown_partial.pcx 178 10 01 24 12 -7 -17
  502 Y:\Documents\OTTD graphics\HEQS_build\Full HEQS\sprites\belly_dump_trailers/belly_dump_trailer_small_brown_partial.pcx 210 10 09 20 26 -17 -9
  503 Y:\Documents\OTTD graphics\HEQS_build\Full HEQS\sprites\belly_dump_trailers/belly_dump_trailer_small_brown_partial.pcx 242 10 01 16 36 -41 -9
  504 Y:\Documents\OTTD graphics\HEQS_build\Full HEQS\sprites\belly_dump_trailers/belly_dump_trailer_small_brown_partial.pcx 290 10 09 20 26 -13 -12
  // Medium Belly dump brown loaded
  505 Y:\Documents\OTTD graphics\HEQS_build\Full HEQS\sprites\belly_dump_trailers/belly_dump_trailer_small_brown.pcx 34 10 01 24 12 -5 -16
  506 Y:\Documents\OTTD graphics\HEQS_build\Full HEQS\sprites\belly_dump_trailers/belly_dump_trailer_small_brown.pcx 66 10 09 20 26 -8 -11
  507 Y:\Documents\OTTD graphics\HEQS_build\Full HEQS\sprites\belly_dump_trailers/belly_dump_trailer_small_brown.pcx 98 10 01 16 36 -6 -10
  508 Y:\Documents\OTTD graphics\HEQS_build\Full HEQS\sprites\belly_dump_trailers/belly_dump_trailer_small_brown.pcx 146 10 09 20 26 -10 -9
  509 Y:\Documents\OTTD graphics\HEQS_build\Full HEQS\sprites\belly_dump_trailers/belly_dump_trailer_small_brown.pcx 178 10 01 24 12 -7 -17
  510 Y:\Documents\OTTD graphics\HEQS_build\Full HEQS\sprites\belly_dump_trailers/belly_dump_trailer_small_brown.pcx 210 10 09 20 26 -17 -9
  511 Y:\Documents\OTTD graphics\HEQS_build\Full HEQS\sprites\belly_dump_trailers/belly_dump_trailer_small_brown.pcx 242 10 01 16 36 -41 -9
  512 Y:\Documents\OTTD graphics\HEQS_build\Full HEQS\sprites\belly_dump_trailers/belly_dump_trailer_small_brown.pcx 290 10 09 20 26 -13 -12
  // Medium Belly dump white loading
  513 Y:\Documents\OTTD graphics\HEQS_build\Full HEQS\sprites\belly_dump_trailers/belly_dump_trailer_small_white_partial.pcx 34 10 01 24 12 -5 -16
  514 Y:\Documents\OTTD graphics\HEQS_build\Full HEQS\sprites\belly_dump_trailers/belly_dump_trailer_small_white_partial.pcx 66 10 09 20 26 -8 -11
  515 Y:\Documents\OTTD graphics\HEQS_build\Full HEQS\sprites\belly_dump_trailers/belly_dump_trailer_small_white_partial.pcx 98 10 01 16 36 -6 -10
  516 Y:\Documents\OTTD graphics\HEQS_build\Full HEQS\sprites\belly_dump_trailers/belly_dump_trailer_small_white_partial.pcx 146 10 09 20 26 -10 -9
  517 Y:\Documents\OTTD graphics\HEQS_build\Full HEQS\sprites\belly_dump_trailers/belly_dump_trailer_small_white_partial.pcx 178 10 01 24 12 -7 -17
  518 Y:\Documents\OTTD graphics\HEQS_build\Full HEQS\sprites\belly_dump_trailers/belly_dump_trailer_small_white_partial.pcx 210 10 09 20 26 -17 -9
  519 Y:\Documents\OTTD graphics\HEQS_build\Full HEQS\sprites\belly_dump_trailers/belly_dump_trailer_small_white_partial.pcx 242 10 01 16 36 -41 -9
  520 Y:\Documents\OTTD graphics\HEQS_build\Full HEQS\sprites\belly_dump_trailers/belly_dump_trailer_small_white_partial.pcx 290 10 09 20 26 -13 -12
  // Medium Belly dump white loaded
  521 Y:\Documents\OTTD graphics\HEQS_build\Full HEQS\sprites\belly_dump_trailers/belly_dump_trailer_small_white.pcx 34 10 01 24 12 -5 -16
  522 Y:\Documents\OTTD graphics\HEQS_build\Full HEQS\sprites\belly_dump_trailers/belly_dump_trailer_small_white.pcx 66 10 09 20 26 -8 -11
  523 Y:\Documents\OTTD graphics\HEQS_build\Full HEQS\sprites\belly_dump_trailers/belly_dump_trailer_small_white.pcx 98 10 01 16 36 -6 -10
  524 Y:\Documents\OTTD graphics\HEQS_build\Full HEQS\sprites\belly_dump_trailers/belly_dump_trailer_small_white.pcx 146 10 09 20 26 -10 -9
  525 Y:\Documents\OTTD graphics\HEQS_build\Full HEQS\sprites\belly_dump_trailers/belly_dump_trailer_small_white.pcx 178 10 01 24 12 -7 -17
  526 Y:\Documents\OTTD graphics\HEQS_build\Full HEQS\sprites\belly_dump_trailers/belly_dump_trailer_small_white.pcx 210 10 09 20 26 -17 -9
  527 Y:\Documents\OTTD graphics\HEQS_build\Full HEQS\sprites\belly_dump_trailers/belly_dump_trailer_small_white.pcx 242 10 01 16 36 -41 -9
  528 Y:\Documents\OTTD graphics\HEQS_build\Full HEQS\sprites\belly_dump_trailers/belly_dump_trailer_small_white.pcx 290 10 09 20 26 -13 -12
  // Medium Belly dump red loading
  529 Y:\Documents\OTTD graphics\HEQS_build\Full HEQS\sprites\belly_dump_trailers/belly_dump_trailer_small_red_partial.pcx 34 10 01 24 12 -5 -16
  530 Y:\Documents\OTTD graphics\HEQS_build\Full HEQS\sprites\belly_dump_trailers/belly_dump_trailer_small_red_partial.pcx 66 10 09 20 26 -8 -11
  531 Y:\Documents\OTTD graphics\HEQS_build\Full HEQS\sprites\belly_dump_trailers/belly_dump_trailer_small_red_partial.pcx 98 10 01 16 36 -6 -10
  532 Y:\Documents\OTTD graphics\HEQS_build\Full HEQS\sprites\belly_dump_trailers/belly_dump_trailer_small_red_partial.pcx 146 10 09 20 26 -10 -9
  533 Y:\Documents\OTTD graphics\HEQS_build\Full HEQS\sprites\belly_dump_trailers/belly_dump_trailer_small_red_partial.pcx 178 10 01 24 12 -7 -17
  534 Y:\Documents\OTTD graphics\HEQS_build\Full HEQS\sprites\belly_dump_trailers/belly_dump_trailer_small_red_partial.pcx 210 10 09 20 26 -17 -9
  535 Y:\Documents\OTTD graphics\HEQS_build\Full HEQS\sprites\belly_dump_trailers/belly_dump_trailer_small_red_partial.pcx 242 10 01 16 36 -41 -9
  536 Y:\Documents\OTTD graphics\HEQS_build\Full HEQS\sprites\belly_dump_trailers/belly_dump_trailer_small_red_partial.pcx 290 10 09 20 26 -13 -12
  // Medium Belly dump red loaded
  537 Y:\Documents\OTTD graphics\HEQS_build\Full HEQS\sprites\belly_dump_trailers/belly_dump_trailer_small_red.pcx 34 10 01 24 12 -5 -16
  538 Y:\Documents\OTTD graphics\HEQS_build\Full HEQS\sprites\belly_dump_trailers/belly_dump_trailer_small_red.pcx 66 10 09 20 26 -8 -11
  539 Y:\Documents\OTTD graphics\HEQS_build\Full HEQS\sprites\belly_dump_trailers/belly_dump_trailer_small_red.pcx 98 10 01 16 36 -6 -10
  540 Y:\Documents\OTTD graphics\HEQS_build\Full HEQS\sprites\belly_dump_trailers/belly_dump_trailer_small_red.pcx 146 10 09 20 26 -10 -9
  541 Y:\Documents\OTTD graphics\HEQS_build\Full HEQS\sprites\belly_dump_trailers/belly_dump_trailer_small_red.pcx 178 10 01 24 12 -7 -17
  542 Y:\Documents\OTTD graphics\HEQS_build\Full HEQS\sprites\belly_dump_trailers/belly_dump_trailer_small_red.pcx 210 10 09 20 26 -17 -9
  543 Y:\Documents\OTTD graphics\HEQS_build\Full HEQS\sprites\belly_dump_trailers/belly_dump_trailer_small_red.pcx 242 10 01 16 36 -41 -9
  544 Y:\Documents\OTTD graphics\HEQS_build\Full HEQS\sprites\belly_dump_trailers/belly_dump_trailer_small_red.pcx 290 10 09 20 26 -13 -12
  // Medium Belly dump grey loading
  545 Y:\Documents\OTTD graphics\HEQS_build\Full HEQS\sprites\belly_dump_trailers/belly_dump_trailer_small_grey_partial.pcx 34 10 01 24 12 -5 -16
  546 Y:\Documents\OTTD graphics\HEQS_build\Full HEQS\sprites\belly_dump_trailers/belly_dump_trailer_small_grey_partial.pcx 66 10 09 20 26 -8 -11
  547 Y:\Documents\OTTD graphics\HEQS_build\Full HEQS\sprites\belly_dump_trailers/belly_dump_trailer_small_grey_partial.pcx 98 10 01 16 36 -6 -10
  548 Y:\Documents\OTTD graphics\HEQS_build\Full HEQS\sprites\belly_dump_trailers/belly_dump_trailer_small_grey_partial.pcx 146 10 09 20 26 -10 -9
  549 Y:\Documents\OTTD graphics\HEQS_build\Full HEQS\sprites\belly_dump_trailers/belly_dump_trailer_small_grey_partial.pcx 178 10 01 24 12 -7 -17
  550 Y:\Documents\OTTD graphics\HEQS_build\Full HEQS\sprites\belly_dump_trailers/belly_dump_trailer_small_grey_partial.pcx 210 10 09 20 26 -17 -9
  551 Y:\Documents\OTTD graphics\HEQS_build\Full HEQS\sprites\belly_dump_trailers/belly_dump_trailer_small_grey_partial.pcx 242 10 01 16 36 -41 -9
  552 Y:\Documents\OTTD graphics\HEQS_build\Full HEQS\sprites\belly_dump_trailers/belly_dump_trailer_small_grey_partial.pcx 290 10 09 20 26 -13 -12
  // Medium Belly dump grey loaded
  553 Y:\Documents\OTTD graphics\HEQS_build\Full HEQS\sprites\belly_dump_trailers/belly_dump_trailer_small_grey.pcx 34 10 01 24 12 -5 -16
  554 Y:\Documents\OTTD graphics\HEQS_build\Full HEQS\sprites\belly_dump_trailers/belly_dump_trailer_small_grey.pcx 66 10 09 20 26 -8 -11
  555 Y:\Documents\OTTD graphics\HEQS_build\Full HEQS\sprites\belly_dump_trailers/belly_dump_trailer_small_grey.pcx 98 10 01 16 36 -6 -10
  556 Y:\Documents\OTTD graphics\HEQS_build\Full HEQS\sprites\belly_dump_trailers/belly_dump_trailer_small_grey.pcx 146 10 09 20 26 -10 -9
  557 Y:\Documents\OTTD graphics\HEQS_build\Full HEQS\sprites\belly_dump_trailers/belly_dump_trailer_small_grey.pcx 178 10 01 24 12 -7 -17
  558 Y:\Documents\OTTD graphics\HEQS_build\Full HEQS\sprites\belly_dump_trailers/belly_dump_trailer_small_grey.pcx 210 10 09 20 26 -17 -9
  559 Y:\Documents\OTTD graphics\HEQS_build\Full HEQS\sprites\belly_dump_trailers/belly_dump_trailer_small_grey.pcx 242 10 01 16 36 -41 -9
  560 Y:\Documents\OTTD graphics\HEQS_build\Full HEQS\sprites\belly_dump_trailers/belly_dump_trailer_small_grey.pcx 290 10 09 20 26 -13 -12
  561 * 17	 02 01 A1 03 03  00 00  01 00  02 00    00 00  01 00  02 00
  562 * 17	 02 01 A2 03 03  00 00  03 00  04 00    00 00  03 00  04 00
  563 * 17	 02 01 A3 03 03  00 00  05 00  06 00    00 00  05 00  06 00
  564 * 17	 02 01 A4 03 03  00 00  07 00  08 00    00 00  07 00  08 00
  565 * 17	 02 01 A5 03 03  00 00  09 00  0A 00    00 00  09 00  0A 00
  566 * 17	 02 01 A6 03 03  00 00  0B 00  0C 00    00 00  0B 00  0C 00
  567 * 22	 03 01 01 06   // Action 3
    05 // number of cargo types to support
    01 A1 00
    08 A2 00
    0E A3 00
    11 A4 00
    17 A5 00
    A6 00 // default sprites

   // Large belly dump trailer
   // Used by No. 8, No.9, large articulated mining trucks...
   // ...may need to split sprites for bulldozers / trucks to get correct offsets 
  568 * 67	 00 01 19 01 07
    00 00 00  // intro date 
    02 20     // reliability 
    03 11     // vehicle life 
    04 23     // class life 
    06 00     // climate 
    07 05     // load amount 
    08 80     // speed in mph * 3.2
    09 1E     // running cost factor 
    0A 48 4C 00 00 13 14 14 18        // running cost base 
    0E FF     // sprite ID
    0F \b120     // capacity
    10 FF     // cargo type
    11 34     // cost factor
    12 17     // sound effect
    15 20     // speed in mph * 0.8
    16 40 00 00 00     // Bit mask of cargo types available for refitting
    17 16     // Callback flags bit mask
    1A 00     // Refit cost, using 25% of the purchase price cost base
[...]
 1243 Y:\Documents\OTTD graphics\HEQS_build\Full HEQS\sprites\mining_trucks/95t_mining_truck_white.pcx 290 10 09 20 26 -10 -11
  // Kilimanjaro 95t hauler red
 1244 Y:\Documents\OTTD graphics\HEQS_build\Full HEQS\sprites\mining_trucks/95t_mining_truck_red.pcx 34 10 01 24 12 -5 -13
 1245 Y:\Documents\OTTD graphics\HEQS_build\Full HEQS\sprites\mining_trucks/95t_mining_truck_red.pcx 66 10 09 20 26 -15 -8
 1246 Y:\Documents\OTTD graphics\HEQS_build\Full HEQS\sprites\mining_trucks/95t_mining_truck_red.pcx 98 10 01 16 36 -18 -8
 1247 Y:\Documents\OTTD graphics\HEQS_build\Full HEQS\sprites\mining_trucks/95t_mining_truck_red.pcx 146 10 09 20 26 -11 -9
 1248 Y:\Documents\OTTD graphics\HEQS_build\Full HEQS\sprites\mining_trucks/95t_mining_truck_red.pcx 178 10 01 24 12 -5 -13
 1249 Y:\Documents\OTTD graphics\HEQS_build\Full HEQS\sprites\mining_trucks/95t_mining_truck_red.pcx 210 10 09 20 26 -16 -9
 1250 Y:\Documents\OTTD graphics\HEQS_build\Full HEQS\sprites\mining_trucks/95t_mining_truck_red.pcx 242 10 01 16 36 -20 -10
 1251 Y:\Documents\OTTD graphics\HEQS_build\Full HEQS\sprites\mining_trucks/95t_mining_truck_red.pcx 290 10 09 20 26 -10 -11
  // Kilimanjaro 95t hauler grey 
 1252 Y:\Documents\OTTD graphics\HEQS_build\Full HEQS\sprites\mining_trucks/95t_mining_truck_grey.pcx 34 10 01 24 12 -5 -13
 1253 Y:\Documents\OTTD graphics\HEQS_build\Full HEQS\sprites\mining_trucks/95t_mining_truck_grey.pcx 66 10 09 20 26 -15 -8
 1254 Y:\Documents\OTTD graphics\HEQS_build\Full HEQS\sprites\mining_trucks/95t_mining_truck_grey.pcx 98 10 01 16 36 -18 -8
 1255 Y:\Documents\OTTD graphics\HEQS_build\Full HEQS\sprites\mining_trucks/95t_mining_truck_grey.pcx 146 10 09 20 26 -11 -9
 1256 Y:\Documents\OTTD graphics\HEQS_build\Full HEQS\sprites\mining_trucks/95t_mining_truck_grey.pcx 178 10 01 24 12 -5 -13
 1257 Y:\Documents\OTTD graphics\HEQS_build\Full HEQS\sprites\mining_trucks/95t_mining_truck_grey.pcx 210 10 09 20 26 -16 -9
 1258 Y:\Documents\OTTD graphics\HEQS_build\Full HEQS\sprites\mining_trucks/95t_mining_truck_grey.pcx 242 10 01 16 36 -20 -10
 1259 Y:\Documents\OTTD graphics\HEQS_build\Full HEQS\sprites\mining_trucks/95t_mining_truck_grey.pcx 290 10 09 20 26 -10 -11
 1260 * 13	 02 01 A1 02 02 00 00 01 00 00 00 01 00
 1261 * 13	 02 01 A2 02 02 00 00 02 00 00 00 02 00
 1262 * 13	 02 01 A3 02 02 00 00 03 00 00 00 03 00
 1263 * 13	 02 01 A4 02 02 00 00 04 00 00 00 04 00
 1264 * 13	 02 01 A5 02 02 00 00 05 00 00 00 05 00
 1265 * 13	 02 01 A6 02 02 00 00 06 00 00 00 06 00
 1266 * 4	 01 01 01 04 // depot sprites
 1267 * 1	 00
 1268 * 1	 00
 1269 Y:\Documents\OTTD graphics\HEQS_build\Full HEQS\sprites\mining_trucks/95t_mining_truck.pcx 370 14 01 12 36 -14 -6
 1270 * 1	 00
 1271 * 9	 02 01 AF 01 01 00 00 00 00
 1272 * 25	 03 01 01 1F 
   06 
   01 A1 00
   08 A2 00
   0E A3 00 
   11 A4 00
   17 A5 00
   FF AF 00 // buy menu sprites
   A6 00 // default sprites

  // Kilimanjaro (Articulated) Dump Truck  240t		2001-2050	37mph
 1273 * 67	 00 01 19 01 10
    00 \w1-1-1920  // intro date
    02 20     // reliability
    03 19     // vehicle life
    04 19     // class life
    06 0F     // climate
    07 05     // load amount
    08 \b118     // speed in mph * 3.2
    09 50     // running cost factor
    0A 48 4C 00 00 13 28 14 C8        // running cost base
    0E FF     // sprite ID
    0F 00     // capacity
    10 FF     // cargo type 
    11 5D     // cost factor
    12 19     // sound effect
    15 \b30     // speed in mph * 0.8
    16 40 00 00 28     // Bit mask of cargo types available for refitting
    // flips 1D / 1E values: excludes grain, wheat, maize
    17 16     // Callback flags bit mask
    1A 00     // Refit cost, using 25% of the purchase price cost base
    1B 00     // Retire vehicle early, this many years before the end of phase 2
    1C 02     // Miscellaneous vehicle flags
    1D 10 00          // Refittable cargo classes
    1E EF 03          // Non-refittable cargo classes
    1F 8D 26 0B 00    // Long format introduction date
 1274 * 42	 04 01 7F 01 10 "Kilimanjaro (Articulated) Dump Truck" 00
 1275 * 4	 01 01 01 08
  // Kilimanjaro (Articulated) dump truck empty
 1276 Y:\Documents\OTTD graphics\HEQS_build\Full HEQS\sprites\off_highway_trucks/mining_truck_chassis.pcx 34 10 01 24 12 -5 -16
 1277 Y:\Documents\OTTD graphics\HEQS_build\Full HEQS\sprites\off_highway_trucks/mining_truck_chassis.pcx 66 10 09 20 26 -15 -8
 1278 Y:\Documents\OTTD graphics\HEQS_build\Full HEQS\sprites\off_highway_trucks/mining_truck_chassis.pcx 98 10 01 16 36 -18 -10
 1279 Y:\Documents\OTTD graphics\HEQS_build\Full HEQS\sprites\off_highway_trucks/mining_truck_chassis.pcx 146 10 09 20 26 -11 -9
 1280 Y:\Documents\OTTD graphics\HEQS_build\Full HEQS\sprites\off_highway_trucks/mining_truck_chassis.pcx 178 10 01 24 12 -5 -15
 1281 Y:\Documents\OTTD graphics\HEQS_build\Full HEQS\sprites\off_highway_trucks/mining_truck_chassis.pcx 210 10 09 20 26 -16 -9
 1282 Y:\Documents\OTTD graphics\HEQS_build\Full HEQS\sprites\off_highway_trucks/mining_truck_chassis.pcx 242 10 01 16 36 -20 -10
 1283 Y:\Documents\OTTD graphics\HEQS_build\Full HEQS\sprites\off_highway_trucks/mining_truck_chassis.pcx 290 10 09 20 26 -10 -11
 1284 * 9	 02 01 A1 01 01 00 00 00 00 //normal action2 defining graphics with no loading/loaded stages
 1285 * 4	 01 01 01 04
 1286 * 1	 00
 1287 * 1	 00
 1288 Y:\Documents\OTTD graphics\HEQS_build\Full HEQS\sprites\off_highway_trucks/mining_truck_chassis.pcx 242 10 01 16 36 -18 -8
 1289 * 1	 00
 1290 * 22	 02 01 B0 //ID B0
               81 10 00 FF //check byte value of variable 10 (no bit shift, FF andmask)
               03 //check one ranges
               07 80 01 01 //give callback result
               04 80 02 02 //give callback result
               07 80 03 03 //give callback result
               FF FF //otherwise end the callback chain
 1291 * 14	 02 01 B1 //ID B1
               81 0C 00 FF //check byte value of variable 81 (no bit shift, FF andmask)
               01 //check one range
               B0 00 16 16 //go to ID B0 for value 16 (ie. go to the articulated vehicle building instructions)
               A1 00 //otherwise go to ID A1 (ie. apply vehicle graphics)
 1292 * 7	 03   // Action 3
    01  // RV 
    01  // Number of vehicles this action associate graphics with 
    10  // Vehicle ID
    00  // Number of different cargo types to support  
    B1 00   // Action 2 ID above  

  // Unitised Mining Hauler  200t	1200hp	1990-2050	57mph
 1293 * 67	 00 01 19 01 11
    00 \w1-1-1920  // intro date
    02 20     // reliability
    03 19     // vehicle life
    04 19     // class life
    06 0F     // climate
    07 05     // load amount
    08 \b182     // speed in mph * 3.2
    09 50     // running cost factor
    0A 48 4C 00 00 13 28 14 C8        // running cost base
    0E FF     // sprite ID
    0F \b200     // capacity
    10 FF     // cargo type 
    11 5D     // cost factor
    12 19     // sound effect
    15 \b46     // speed in mph * 0.8
    16 40 00 00 28     // Bit mask of cargo types available for refitting
    // flips 1D / 1E values: excludes grain, wheat, maize
    17 00     // Callback flags bit mask
    1A 00     // Refit cost, using 25% of the purchase price cost base
    1B 00     // Retire vehicle early, this many years before the end of phase 2
    1C 02     // Miscellaneous vehicle flags
    1D 10 00          // Refittable cargo classes
    1E EF 03          // Non-refittable cargo classes
    1F 2F 07 0B 00   // Long format introduction date
 1294 * 27	 04 01 7F 01 11 "Unitised Mining Truck" 00
//!!Warning (97): Set 00 defined by the previous Action 1 (sprite 1285) has not been used.
 1295 * 4	 01 01 07 08
  // unitised hauler empty
 1296 Y:\Documents\OTTD graphics\HEQS_build\Full HEQS\sprites\mining_trucks/unitised_mining_truck.pcx 34 10 01 24 12 -5 -15
 1297 Y:\Documents\OTTD graphics\HEQS_build\Full HEQS\sprites\mining_trucks/unitised_mining_truck.pcx 66 10 01 22 30 -17 -10
 1298 Y:\Documents\OTTD graphics\HEQS_build\Full HEQS\sprites\mining_trucks/unitised_mining_truck.pcx 98 10 01 16 36 -14 -9
 1299 Y:\Documents\OTTD graphics\HEQS_build\Full HEQS\sprites\mining_trucks/unitised_mining_truck.pcx 146 10 01 22 30 -10 -10
 1300 Y:\Documents\OTTD graphics\HEQS_build\Full HEQS\sprites\mining_trucks/unitised_mining_truck.pcx 178 10 01 24 12 -5 -13
 1301 Y:\Documents\OTTD graphics\HEQS_build\Full HEQS\sprites\mining_trucks/unitised_mining_truck.pcx 210 10 01 22 30 -18 -11
 1302 Y:\Documents\OTTD graphics\HEQS_build\Full HEQS\sprites\mining_trucks/unitised_mining_truck.pcx 242 10 01 16 36 -24 -10
 1303 Y:\Documents\OTTD graphics\HEQS_build\Full HEQS\sprites\mining_trucks/unitised_mining_truck.pcx 290 10 01 22 30 -9 -11
  // unitised hauler coal
 1304 Y:\Documents\OTTD graphics\HEQS_build\Full HEQS\sprites\mining_trucks/unitised_mining_truck_coal.pcx 34 10 01 24 12 -5 -15
 1305 Y:\Documents\OTTD graphics\HEQS_build\Full HEQS\sprites\mining_trucks/unitised_mining_truck_coal.pcx 66 10 01 22 30 -17 -10
 1306 Y:\Documents\OTTD graphics\HEQS_build\Full HEQS\sprites\mining_trucks/unitised_mining_truck_coal.pcx 98 10 01 16 36 -14 -9
 1307 Y:\Documents\OTTD graphics\HEQS_build\Full HEQS\sprites\mining_trucks/unitised_mining_truck_coal.pcx 146 10 01 22 30 -10 -10
 1308 Y:\Documents\OTTD graphics\HEQS_build\Full HEQS\sprites\mining_trucks/unitised_mining_truck_coal.pcx 178 10 01 24 12 -5 -13
 1309 Y:\Documents\OTTD graphics\HEQS_build\Full HEQS\sprites\mining_trucks/unitised_mining_truck_coal.pcx 210 10 01 22 30 -18 -11
 1310 Y:\Documents\OTTD graphics\HEQS_build\Full HEQS\sprites\mining_trucks/unitised_mining_truck_coal.pcx 242 10 01 16 36 -24 -10
 1311 Y:\Documents\OTTD graphics\HEQS_build\Full HEQS\sprites\mining_trucks/unitised_mining_truck_coal.pcx 290 10 01 22 30 -9 -11
  // unitised hauler iron 
 1312 Y:\Documents\OTTD graphics\HEQS_build\Full HEQS\sprites\mining_trucks/unitised_mining_truck_iron.pcx 34 10 01 24 12 -5 -15
 1313 Y:\Documents\OTTD graphics\HEQS_build\Full HEQS\sprites\mining_trucks/unitised_mining_truck_iron.pcx 66 10 01 22 30 -17 -10
 1314 Y:\Documents\OTTD graphics\HEQS_build\Full HEQS\sprites\mining_trucks/unitised_mining_truck_iron.pcx 98 10 01 16 36 -14 -9
 1315 Y:\Documents\OTTD graphics\HEQS_build\Full HEQS\sprites\mining_trucks/unitised_mining_truck_iron.pcx 146 10 01 22 30 -10 -10
 1316 Y:\Documents\OTTD graphics\HEQS_build\Full HEQS\sprites\mining_trucks/unitised_mining_truck_iron.pcx 178 10 01 24 12 -5 -13
 1317 Y:\Documents\OTTD graphics\HEQS_build\Full HEQS\sprites\mining_trucks/unitised_mining_truck_iron.pcx 210 10 01 22 30 -18 -11
 1318 Y:\Documents\OTTD graphics\HEQS_build\Full HEQS\sprites\mining_trucks/unitised_mining_truck_iron.pcx 242 10 01 16 36 -24 -10
 1319 Y:\Documents\OTTD graphics\HEQS_build\Full HEQS\sprites\mining_trucks/unitised_mining_truck_iron.pcx 290 10 01 22 30 -9 -11
  // unitised hauler brown
 1320 Y:\Documents\OTTD graphics\HEQS_build\Full HEQS\sprites\mining_trucks/unitised_mining_truck_brown.pcx 34 10 01 24 12 -5 -15
 1321 Y:\Documents\OTTD graphics\HEQS_build\Full HEQS\sprites\mining_trucks/unitised_mining_truck_brown.pcx 66 10 01 22 30 -17 -10
 1322 Y:\Documents\OTTD graphics\HEQS_build\Full HEQS\sprites\mining_trucks/unitised_mining_truck_brown.pcx 98 10 01 16 36 -14 -9
 1323 Y:\Documents\OTTD graphics\HEQS_build\Full HEQS\sprites\mining_trucks/unitised_mining_truck_brown.pcx 146 10 01 22 30 -10 -10
 1324 Y:\Documents\OTTD graphics\HEQS_build\Full HEQS\sprites\mining_trucks/unitised_mining_truck_brown.pcx 178 10 01 24 12 -5 -13
 1325 Y:\Documents\OTTD graphics\HEQS_build\Full HEQS\sprites\mining_trucks/unitised_mining_truck_brown.pcx 210 10 01 22 30 -18 -11
 1326 Y:\Documents\OTTD graphics\HEQS_build\Full HEQS\sprites\mining_trucks/unitised_mining_truck_brown.pcx 242 10 01 16 36 -24 -10
 1327 Y:\Documents\OTTD graphics\HEQS_build\Full HEQS\sprites\mining_trucks/unitised_mining_truck_brown.pcx 290 10 01 22 30 -9 -11
  // unitised hauler white 
 1328 Y:\Documents\OTTD graphics\HEQS_build\Full HEQS\sprites\mining_trucks/unitised_mining_truck_white.pcx 34 10 01 24 12 -5 -15
 1329 Y:\Documents\OTTD graphics\HEQS_build\Full HEQS\sprites\mining_trucks/unitised_mining_truck_white.pcx 66 10 01 22 30 -17 -10
 1330 Y:\Documents\OTTD graphics\HEQS_build\Full HEQS\sprites\mining_trucks/unitised_mining_truck_white.pcx 98 10 01 16 36 -14 -9
 1331 Y:\Documents\OTTD graphics\HEQS_build\Full HEQS\sprites\mining_trucks/unitised_mining_truck_white.pcx 146 10 01 22 30 -10 -10
 1332 Y:\Documents\OTTD graphics\HEQS_build\Full HEQS\sprites\mining_trucks/unitised_mining_truck_white.pcx 178 10 01 24 12 -5 -13
 1333 Y:\Documents\OTTD graphics\HEQS_build\Full HEQS\sprites\mining_trucks/unitised_mining_truck_white.pcx 210 10 01 22 30 -18 -11
 1334 Y:\Documents\OTTD graphics\HEQS_build\Full HEQS\sprites\mining_trucks/unitised_mining_truck_white.pcx 242 10 01 16 36 -24 -10
 1335 Y:\Documents\OTTD graphics\HEQS_build\Full HEQS\sprites\mining_trucks/unitised_mining_truck_white.pcx 290 10 01 22 30 -9 -11
  // unitised hauler red
 1336 Y:\Documents\OTTD graphics\HEQS_build\Full HEQS\sprites\mining_trucks/unitised_mining_truck_red.pcx 34 10 01 24 12 -5 -15
 1337 Y:\Documents\OTTD graphics\HEQS_build\Full HEQS\sprites\mining_trucks/unitised_mining_truck_red.pcx 66 10 01 22 30 -17 -10
 1338 Y:\Documents\OTTD graphics\HEQS_build\Full HEQS\sprites\mining_trucks/unitised_mining_truck_red.pcx 98 10 01 16 36 -14 -9
 1339 Y:\Documents\OTTD graphics\HEQS_build\Full HEQS\sprites\mining_trucks/unitised_mining_truck_red.pcx 146 10 01 22 30 -10 -10
 1340 Y:\Documents\OTTD graphics\HEQS_build\Full HEQS\sprites\mining_trucks/unitised_mining_truck_red.pcx 178 10 01 24 12 -5 -13
 1341 Y:\Documents\OTTD graphics\HEQS_build\Full HEQS\sprites\mining_trucks/unitised_mining_truck_red.pcx 210 10 01 22 30 -18 -11
 1342 Y:\Documents\OTTD graphics\HEQS_build\Full HEQS\sprites\mining_trucks/unitised_mining_truck_red.pcx 242 10 01 16 36 -24 -10
 1343 Y:\Documents\OTTD graphics\HEQS_build\Full HEQS\sprites\mining_trucks/unitised_mining_truck_red.pcx 290 10 01 22 30 -9 -11
  // unitised hauler grey
 1344 Y:\Documents\OTTD graphics\HEQS_build\Full HEQS\sprites\mining_trucks/unitised_mining_truck_grey.pcx 34 10 01 24 12 -5 -15
 1345 Y:\Documents\OTTD graphics\HEQS_build\Full HEQS\sprites\mining_trucks/unitised_mining_truck_grey.pcx 66 10 01 22 30 -17 -10
 1346 Y:\Documents\OTTD graphics\HEQS_build\Full HEQS\sprites\mining_trucks/unitised_mining_truck_grey.pcx 98 10 01 16 36 -14 -9
 1347 Y:\Documents\OTTD graphics\HEQS_build\Full HEQS\sprites\mining_trucks/unitised_mining_truck_grey.pcx 146 10 01 22 30 -10 -10
 1348 Y:\Documents\OTTD graphics\HEQS_build\Full HEQS\sprites\mining_trucks/unitised_mining_truck_grey.pcx 178 10 01 24 12 -5 -13
 1349 Y:\Documents\OTTD graphics\HEQS_build\Full HEQS\sprites\mining_trucks/unitised_mining_truck_grey.pcx 210 10 01 22 30 -18 -11
 1350 Y:\Documents\OTTD graphics\HEQS_build\Full HEQS\sprites\mining_trucks/unitised_mining_truck_grey.pcx 242 10 01 16 36 -24 -10
 1351 Y:\Documents\OTTD graphics\HEQS_build\Full HEQS\sprites\mining_trucks/unitised_mining_truck_grey.pcx 290 10 01 22 30 -9 -11
 1352 * 13	 02 01 A1 02 02 00 00 01 00 00 00 01 00
 1353 * 13	 02 01 A2 02 02 00 00 02 00 00 00 02 00
 1354 * 13	 02 01 A3 02 02 00 00 03 00 00 00 03 00
 1355 * 13	 02 01 A4 02 02 00 00 04 00 00 00 04 00
 1356 * 13	 02 01 A5 02 02 00 00 05 00 00 00 05 00
 1357 * 13	 02 01 A6 02 02 00 00 06 00 00 00 06 00
 1358 * 4	 01 01 01 04
 1359 * 1	 00
 1360 * 1	 00
 1361 Y:\Documents\OTTD graphics\HEQS_build\Full HEQS\sprites\mining_trucks/unitised_mining_truck.pcx 370 14 01 12 36 -14 -6
 1362 * 1	 00
 1363 * 9	 02 01 AF 01 01 00 00 00 00
 1364 * 25	 03 01 01 11 
   06
   01 A1 00
   08 A2 00
   0E A3 00
   11 A4 00
   17 A5 00
   FF AF 00 // buy menu sprites
   A6 00 // default sprites
  // --------------------------- end of Dump trucks / Mining Haulers --------------------- //

  // --------------------------- Off-Highway Trucks --------------------- //

  // Cascade Off-Highway Truck  90t		1960-1982		30mph
 1365 * 67	 00 01 19 01 23
    00 \w1-1-1920  // intro date
    02 20     // reliability
    03 19     // vehicle life
    04 19     // class life
    06 0F     // climate
    07 05     // load amount
    08 \b96     // speed in mph * 3.2
    09 50     // running cost factor
    0A 48 4C 00 00 13 28 14 C8        // running cost base
    0E FF     // sprite ID
    0F 00     // capacity
    10 FF     // cargo type 
    11 5D     // cost factor
    12 19     // sound effect
    15 \b24     // speed in mph * 0.8
    16 40 00 00 28     // Bit mask of cargo types available for refitting
    // flips 1D / 1E values: excludes grain, wheat, maize
    17 16     // Callback flags bit mask
    1A 00     // Refit cost, using 25% of the purchase price cost base
    1B 00     // Retire vehicle early, this many years before the end of phase 2
    1C 02     // Miscellaneous vehicle flags
    1D 10 00          // Refittable cargo classes
    1E EF 03          // Non-refittable cargo classes
    1F 72 EC 0A 00    // Long format introduction date
 1366 * 31	 04 01 7F 01 23 "Cascade Off-Highway Truck" 00
 1367 * 4	 01 01 01 08
  // Cascade off-highway truck empty
 1368 Y:\Documents\OTTD graphics\HEQS_build\Full HEQS\sprites\off_highway_trucks/1960_truck_3_axle.pcx 34 10 01 24 12 -5 -18
 1369 Y:\Documents\OTTD graphics\HEQS_build\Full HEQS\sprites\off_highway_trucks/1960_truck_3_axle.pcx 66 10 09 20 26 -17 -8
 1370 Y:\Documents\OTTD graphics\HEQS_build\Full HEQS\sprites\off_highway_trucks/1960_truck_3_axle.pcx 98 10 01 16 36 -10 -10
 1371 Y:\Documents\OTTD graphics\HEQS_build\Full HEQS\sprites\off_highway_trucks/1960_truck_3_axle.pcx 146 10 09 20 26 -11 -9
 1372 Y:\Documents\OTTD graphics\HEQS_build\Full HEQS\sprites\off_highway_trucks/1960_truck_3_axle.pcx 178 10 01 24 12 -5 -16
 1373 Y:\Documents\OTTD graphics\HEQS_build\Full HEQS\sprites\off_highway_trucks/1960_truck_3_axle.pcx 210 10 09 20 26 -16 -9
 1374 Y:\Documents\OTTD graphics\HEQS_build\Full HEQS\sprites\off_highway_trucks/1960_truck_3_axle.pcx 242 10 01 16 36 -18 -10
 1375 Y:\Documents\OTTD graphics\HEQS_build\Full HEQS\sprites\off_highway_trucks/1960_truck_3_axle.pcx 290 10 09 20 26 -8 -11
 1376 * 9	 02 01 A1 01 01 00 00 00 00 //normal action2 defining graphics with no loading/loaded stages
 1377 * 4	 01 01 01 04
 1378 * 1	 00
 1379 * 1	 00
 1380 Y:\Documents\OTTD graphics\HEQS_build\Full HEQS\sprites\off_highway_trucks/1960_truck_3_axle.pcx 242 10 01 16 36 -18 -8
 1381 * 1	 00
 1382 * 14	 02 01 B0 //ID B0
               81 10 00 FF //check byte value of variable 10 (no bit shift, FF andmask)
               01 //check one ranges
               06 80 01 01 //give callback result
               FF FF //otherwise end the callback chain
 1383 * 14	 02 01 B1 //ID B1
               81 0C 00 FF //check byte value of variable 81 (no bit shift, FF andmask)
               01 //check one range
               B0 00 16 16 //go to ID B0 for value 16 (ie. go to the articulated vehicle building instructions)
               A1 00 //otherwise go to ID A1 (ie. apply vehicle graphics)
 1384 * 7	 03   // Action 3
    01  // RV 
    01  // Number of vehicles this action associate graphics with 
    23  // Vehicle ID
    00  // Number of different cargo types to support  
    B1 00   // Action 2 ID above  
// --------------------------- end of Off-Highway Trucks --------------------- //
//!!Warning (97): Set 00 defined by the previous Action 1 (sprite 1377) has not been used.
//!!For feature 1 the following cargoIDs have not been used since their most recent definition:
//!!FF (last defined at sprite 354)
