// Automatically generated by GRFCODEC. Do not modify!
// (Info version 7)
// Format: spritenum pcxfile xpos ypos compression ysize xsize xrel yrel
    0 * 4	 1E 09 00 00
    1 * 147	 08 06 "AP" 12 01 "HEQS (Preview) v0.4" 00 "Heavy equipment "
	 "(Preview) v0.3 in dual company "
	 "colours. Brought to you by"
	 "andythenorth and Richard Wheeler (Zephyris)"
	 "2008" 00

    2 * 134	 00 08 01 20 00 09 // Cargo translation table
      "PASS" "COAL" "MAIL" "OIL_"     // 00 - 03, 01 - 08
      "LVST" "GOOD" "GRAI" "WOOD"     // 04 - 07, 10 - 80
      "IORE" "STEL" "VALU" "PAPR"     // 08 - 0B, 01^ - 08^
      "FOOD" "FRUT" "CORE" "WATR"     // 0C - 0F, 10^ - 80^
      "RUBR" "___A" "___B" "___C"     // 10 - 13, 01^^ - 08^^
      "___D" "___E" "___F" "___G"     // 14 - 17, 10^^ - 80^^
      "___H" "___I" "___J" "WHEA"     // 18 - 1B, 01^^^ - 08^^^
      "GOLD" "MAIZ" "TWOD" "DIAM"     // 1C - 1F, 10^^^ - 80^^^

    3 * 67	 00 01 19 01 01 
      00 00 00  // intro date
      02 20     // reliability
      03 19     // vehicle life
      04 23     // class life
      06 00     // climate
      07 05     // load amount
      08 E0     // speed in mph * 3.2
      09 08     // running cost factor
      0A 48 4C 00 00 13 00 14 28        // running cost base
      0E FF     // sprite ID
      0F 32     // capacity
      10 FF     // cargo type
      11 00     // cost factor
      12 00     // sound effect
      15 38     // speed in mph * 0.8
      16 00 00 00 00    // Bit mask of cargo types available for refitting
      17 16     // Callback flags bit mask
      1A 00     // Refit cost, using 25% of the purchase price cost base
      1B 00     // Retire vehicle early, this many years before the end of phase 2
      1C 02     // Miscellaneous vehicle flags     
      1D FF 03     // Refittable cargo classes 
      1E 01 00     // Non-refittable cargo classes
      1F 60 B3 0A 00   // Long format introduction date 

    4 * 67	 00 01 19 01 0A 00 00 00 02 20 03 11 04 23 06 0F 07 05 08 80 09 1E 0A 48 4C 00 00 13 14 14 18 0E
	 FF 0F 00 10 FF 11 34 12 17 15 20 16 00 00 00 00 17 16 1A 00 1B 00 1C 02 1D FF 03 1E 00 00 1F 60
	 B3 0A 00
    5 * 67	 00 01 19 01 0B 00 00 00 02 20 03 11 04 23 06 0F 07 05 08 80 09 1E 0A 48 4C 00 00 13 14 14 18 0E
	 FF 0F 00 10 FF 11 34 12 17 15 20 16 00 00 00 00 17 16 1A 00 1B 00 1C 02 1D FF 03 1E 00 00 1F 60
	 B3 0A 00
    6 * 67	 00 01 19 01 0C 00 00 00 02 20 03 11 04 23 06 0F 07 05 08 80 09 1E 0A 48 4C 00 00 13 14 14 18 0E
	 FF 0F 00 10 FF 11 34 12 17 15 20 16 00 00 00 00 17 16 1A 00 1B 00 1C 02 1D FF 03 1E 00 00 1F 60
	 B3 0A 00
    7 * 29	 04 01 7F 01 01 "[Generic Large Trailer]" 00


   // ----------- Drawbar for Trailers -------------//
   // Drawbar
    8 * 67	 00 01 19 01 04 // Action 0
      00 00 00  // intro date
      02 20     // reliability
      03 19     // vehicle life
      04 23     // class life
      06 00     // climate
      07 05     // load amount
      08 E0     // speed in mph * 3.2
      09 08     // running cost factor
      0A 48 4C 00 00 13 00 14 20 // running cost base
      0E FF     // sprite ID
      0F 00     // capacity
      10 FF     // cargo type
      11 00     // cost factor
      12 00     // sound effect
      15 38     // speed in mph * 0.8
      16 00 00 00 00    // Bit mask of cargo types available for refitting
      17 02     // Callback flags bit mask
      1A 00     // Refit cost, using 25% of the purchase price cost base
      1B 00     // Retire vehicle early, this many years before the end of phase 2
      1C 02     // Miscellaneous vehicle flags     
      1D FF 03     // Refittable cargo classes 
      1E 01 00     // Non-refittable cargo classes
      1F 60 B3 0A 00   // Long format introduction date     
    9 * 28	 04 01 7F 01 04 "[Drawbar for Trailers]" 00
   10 * 4	 01 01 01 08
   11 Y:\Documents\OTTD graphics\HEQS_build\Full HEQS\sprites/drawbar.pcx 34 10 01 24 12 -5 -16
   12 Y:\Documents\OTTD graphics\HEQS_build\Full HEQS\sprites/drawbar.pcx 66 10 09 20 26 -12 -11
   13 Y:\Documents\OTTD graphics\HEQS_build\Full HEQS\sprites/drawbar.pcx 98 10 01 16 36 -18 -8
   14 Y:\Documents\OTTD graphics\HEQS_build\Full HEQS\sprites/drawbar.pcx 146 10 09 20 26 -4 -5
   15 Y:\Documents\OTTD graphics\HEQS_build\Full HEQS\sprites/drawbar.pcx 178 10 01 24 12 -8 -8
   16 Y:\Documents\OTTD graphics\HEQS_build\Full HEQS\sprites/drawbar.pcx 210 10 09 20 26 -26 -4
   17 Y:\Documents\OTTD graphics\HEQS_build\Full HEQS\sprites/drawbar.pcx 242 10 01 16 36 -25 -9
   18 Y:\Documents\OTTD graphics\HEQS_build\Full HEQS\sprites/drawbar.pcx 290 10 09 20 26 -16 -15
   19 * 9	 02 01 BB   01 01   00 00    00 00
   20 * 14	 02 01 AA  // handle callbacks
                 81 0C 00 FF // check variable 0C
                 01 // range
                  05 80 11 11 // vehicle length callback
                 BB 00
   21 * 7	 03 01 01 04 // Action 3
      00  // Number of different cargo types to support  
      AA 00 // default cargo

   // ----------------- end trailer drawbar -------------------//


    // ------------ Medium Trailers ------------------ //

   // Medium Trailers

   22 * 67	 00 01 19 01 00
      00 00 00  // intro date
      02 20     // reliability
      03 19     // vehicle life
      04 23     // class life
      06 00     // climate
      07 05     // load amount
      08 E0     // speed in mph * 3.2
      09 08     // running cost factor
      0A 48 4C 00 00 13 00 14 20    // running cost base
      0E FF     // sprite ID
      0F 1E     // capacity
      10 06     // cargo type
      11 00     // cost factor
      12 00     // sound effect
      15 38     // speed in mph * 0.8
      16 00 00 00 00    // Bit mask of cargo types available for refitting
      17 30     // Callback flags bit mask
      1A 00     // Refit cost, using 25% of the purchase price cost base
      1B 00     // Retire vehicle early, this many years before the end of phase 2
      1C 02     // Miscellaneous vehicle flags 
      1D FF 03      // Refittable cargo classes
      1E 01 00      // Non-refittable cargo classes
      1F 60 B3 0A 00    // Long format introduction date     
   23 * 30	 04 01 7F 01 00 "[Generic Medium Trailer]" 00
// define additional text suffixes
   24 * 28	 04 00 81 02 00 D0
            		" (refit 1)" 00	// D000 = "1st class"
               	" (refit 2)" 00	// D001 = "2nd class"
   // Medium Goods Trailer
   25 * 4	 01 01 01 08
   26 Y:\Documents\OTTD graphics\HEQS_build\Full HEQS\sprites\standard_trailers/medium_trailer_tandem.pcx 34 570 01 24 12 -3 -10
   27 Y:\Documents\OTTD graphics\HEQS_build\Full HEQS\sprites\standard_trailers/medium_trailer_tandem.pcx 66 570 01 20 26 -11 -9
   28 Y:\Documents\OTTD graphics\HEQS_build\Full HEQS\sprites\standard_trailers/medium_trailer_tandem.pcx 98 570 01 16 36 -14 -6
   29 Y:\Documents\OTTD graphics\HEQS_build\Full HEQS\sprites\standard_trailers/medium_trailer_tandem.pcx 146 570 01 20 26 -9 -7
   30 Y:\Documents\OTTD graphics\HEQS_build\Full HEQS\sprites\standard_trailers/medium_trailer_tandem.pcx 178 570 01 24 12 -9 -16
   31 Y:\Documents\OTTD graphics\HEQS_build\Full HEQS\sprites\standard_trailers/medium_trailer_tandem.pcx 210 570 01 20 26 -17 -7
   32 Y:\Documents\OTTD graphics\HEQS_build\Full HEQS\sprites\standard_trailers/medium_trailer_tandem.pcx 242 570 01 16 36 -14 -6
   33 Y:\Documents\OTTD graphics\HEQS_build\Full HEQS\sprites\standard_trailers/medium_trailer_tandem.pcx 290 570 01 20 26 -13 -10
   34 * 9	 02 01 05   01 01   00 00    00 00
   // Medium end dump trailer - empty
   35 * 4	 01 01 0D 08
   36 Y:\Documents\OTTD graphics\HEQS_build\Full HEQS\sprites\standard_trailers/medium_trailer_tandem.pcx 34 50 01 24 12 -3 -10
   37 Y:\Documents\OTTD graphics\HEQS_build\Full HEQS\sprites\standard_trailers/medium_trailer_tandem.pcx 66 50 09 20 26 -11 -9
   38 Y:\Documents\OTTD graphics\HEQS_build\Full HEQS\sprites\standard_trailers/medium_trailer_tandem.pcx 98 50 01 16 36 -14 -6
   39 Y:\Documents\OTTD graphics\HEQS_build\Full HEQS\sprites\standard_trailers/medium_trailer_tandem.pcx 146 50 09 20 26 -9 -7
   40 Y:\Documents\OTTD graphics\HEQS_build\Full HEQS\sprites\standard_trailers/medium_trailer_tandem.pcx 178 50 01 24 12 -9 -16
   41 Y:\Documents\OTTD graphics\HEQS_build\Full HEQS\sprites\standard_trailers/medium_trailer_tandem.pcx 210 50 09 20 26 -17 -7
   42 Y:\Documents\OTTD graphics\HEQS_build\Full HEQS\sprites\standard_trailers/medium_trailer_tandem.pcx 242 50 01 16 36 -30 -8
   43 Y:\Documents\OTTD graphics\HEQS_build\Full HEQS\sprites\standard_trailers/medium_trailer_tandem.pcx 290 50 09 20 26 -13 -10
   // Medium end dump - iron ore, loading  !! this isn't iron ore??
   44 Y:\Documents\OTTD graphics\HEQS_build\Full HEQS\sprites\standard_trailers/medium_trailer_tandem.pcx 34 490 01 24 12 -3 -10
   45 Y:\Documents\OTTD graphics\HEQS_build\Full HEQS\sprites\standard_trailers/medium_trailer_tandem.pcx 66 490 09 20 20 -11 -9
   46 Y:\Documents\OTTD graphics\HEQS_build\Full HEQS\sprites\standard_trailers/medium_trailer_tandem.pcx 98 490 01 16 36 -14 -6
   47 Y:\Documents\OTTD graphics\HEQS_build\Full HEQS\sprites\standard_trailers/medium_trailer_tandem.pcx 146 490 09 20 26 -9 -7
   48 Y:\Documents\OTTD graphics\HEQS_build\Full HEQS\sprites\standard_trailers/medium_trailer_tandem.pcx 178 490 01 24 12 -9 -16
   49 Y:\Documents\OTTD graphics\HEQS_build\Full HEQS\sprites\standard_trailers/medium_trailer_tandem.pcx 210 490 09 20 26 -17 -7
   50 Y:\Documents\OTTD graphics\HEQS_build\Full HEQS\sprites\standard_trailers/medium_trailer_tandem.pcx 242 490 01 16 36 -30 -8
   51 Y:\Documents\OTTD graphics\HEQS_build\Full HEQS\sprites\standard_trailers/medium_trailer_tandem.pcx 290 490 09 20 26 -13 -10
   // Medium end dump - iron ore, loaded  !! this isn't iron ore??
   52 Y:\Documents\OTTD graphics\HEQS_build\Full HEQS\sprites\standard_trailers/medium_trailer_tandem.pcx 34 530 01 24 12 -3 -10
   53 Y:\Documents\OTTD graphics\HEQS_build\Full HEQS\sprites\standard_trailers/medium_trailer_tandem.pcx 66 530 09 20 20 -11 -9
   54 Y:\Documents\OTTD graphics\HEQS_build\Full HEQS\sprites\standard_trailers/medium_trailer_tandem.pcx 98 530 01 16 36 -14 -6
   55 Y:\Documents\OTTD graphics\HEQS_build\Full HEQS\sprites\standard_trailers/medium_trailer_tandem.pcx 146 530 09 20 26 -9 -7
   56 Y:\Documents\OTTD graphics\HEQS_build\Full HEQS\sprites\standard_trailers/medium_trailer_tandem.pcx 178 530 01 24 12 -9 -16
   57 Y:\Documents\OTTD graphics\HEQS_build\Full HEQS\sprites\standard_trailers/medium_trailer_tandem.pcx 210 530 09 20 26 -17 -7
   58 Y:\Documents\OTTD graphics\HEQS_build\Full HEQS\sprites\standard_trailers/medium_trailer_tandem.pcx 242 530 01 16 36 -30 -8
   59 Y:\Documents\OTTD graphics\HEQS_build\Full HEQS\sprites\standard_trailers/medium_trailer_tandem.pcx 290 530 09 20 26 -13 -10
   // Medium end dump - coal, loading
   60 Y:\Documents\OTTD graphics\HEQS_build\Full HEQS\sprites\standard_trailers/medium_trailer_tandem.pcx 34 170 01 24 12 -3 -10
   61 Y:\Documents\OTTD graphics\HEQS_build\Full HEQS\sprites\standard_trailers/medium_trailer_tandem.pcx 66 170 09 20 26 -11 -9
   62 Y:\Documents\OTTD graphics\HEQS_build\Full HEQS\sprites\standard_trailers/medium_trailer_tandem.pcx 98 170 01 16 36 -14 -6
   63 Y:\Documents\OTTD graphics\HEQS_build\Full HEQS\sprites\standard_trailers/medium_trailer_tandem.pcx 146 170 09 20 26 -9 -7
   64 Y:\Documents\OTTD graphics\HEQS_build\Full HEQS\sprites\standard_trailers/medium_trailer_tandem.pcx 178 170 01 24 12 -9 -16
   65 Y:\Documents\OTTD graphics\HEQS_build\Full HEQS\sprites\standard_trailers/medium_trailer_tandem.pcx 210 170 09 20 26 -17 -7
   66 Y:\Documents\OTTD graphics\HEQS_build\Full HEQS\sprites\standard_trailers/medium_trailer_tandem.pcx 242 170 01 16 36 -30 -8
   67 Y:\Documents\OTTD graphics\HEQS_build\Full HEQS\sprites\standard_trailers/medium_trailer_tandem.pcx 290 170 09 20 26 -13 -10
   // Medium end dump - coal, loaded
   68 Y:\Documents\OTTD graphics\HEQS_build\Full HEQS\sprites\standard_trailers/medium_trailer_tandem.pcx 34 210 01 24 12 -3 -10
   69 Y:\Documents\OTTD graphics\HEQS_build\Full HEQS\sprites\standard_trailers/medium_trailer_tandem.pcx 66 210 09 20 26 -11 -9
   70 Y:\Documents\OTTD graphics\HEQS_build\Full HEQS\sprites\standard_trailers/medium_trailer_tandem.pcx 98 210 01 16 36 -14 -6
   71 Y:\Documents\OTTD graphics\HEQS_build\Full HEQS\sprites\standard_trailers/medium_trailer_tandem.pcx 146 210 09 20 26 -9 -7
   72 Y:\Documents\OTTD graphics\HEQS_build\Full HEQS\sprites\standard_trailers/medium_trailer_tandem.pcx 178 210 01 24 12 -9 -16
   73 Y:\Documents\OTTD graphics\HEQS_build\Full HEQS\sprites\standard_trailers/medium_trailer_tandem.pcx 210 210 09 20 26 -17 -7
   74 Y:\Documents\OTTD graphics\HEQS_build\Full HEQS\sprites\standard_trailers/medium_trailer_tandem.pcx 242 210 01 16 36 -30 -8
   75 Y:\Documents\OTTD graphics\HEQS_build\Full HEQS\sprites\standard_trailers/medium_trailer_tandem.pcx 290 210 09 20 26 -13 -10
   // Medium end dump - grain, loading
   76 Y:\Documents\OTTD graphics\HEQS_build\Full HEQS\sprites\standard_trailers/medium_trailer_tandem.pcx 34 250 01 24 12 -3 -10
   77 Y:\Documents\OTTD graphics\HEQS_build\Full HEQS\sprites\standard_trailers/medium_trailer_tandem.pcx 66 250 09 20 26 -11 -9
   78 Y:\Documents\OTTD graphics\HEQS_build\Full HEQS\sprites\standard_trailers/medium_trailer_tandem.pcx 98 250 01 16 36 -14 -6
   79 Y:\Documents\OTTD graphics\HEQS_build\Full HEQS\sprites\standard_trailers/medium_trailer_tandem.pcx 146 250 09 20 26 -9 -7
   80 Y:\Documents\OTTD graphics\HEQS_build\Full HEQS\sprites\standard_trailers/medium_trailer_tandem.pcx 178 250 01 24 12 -9 -16
   81 Y:\Documents\OTTD graphics\HEQS_build\Full HEQS\sprites\standard_trailers/medium_trailer_tandem.pcx 210 250 09 20 26 -17 -7
   82 Y:\Documents\OTTD graphics\HEQS_build\Full HEQS\sprites\standard_trailers/medium_trailer_tandem.pcx 242 250 01 16 36 -30 -8
   83 Y:\Documents\OTTD graphics\HEQS_build\Full HEQS\sprites\standard_trailers/medium_trailer_tandem.pcx 250 250 09 20 26 -13 -10
  // Medium end dump - grain, loaded
   84 Y:\Documents\OTTD graphics\HEQS_build\Full HEQS\sprites\standard_trailers/medium_trailer_tandem.pcx 34 290 01 24 12 -3 -10
   85 Y:\Documents\OTTD graphics\HEQS_build\Full HEQS\sprites\standard_trailers/medium_trailer_tandem.pcx 66 290 09 20 26 -11 -9
   86 Y:\Documents\OTTD graphics\HEQS_build\Full HEQS\sprites\standard_trailers/medium_trailer_tandem.pcx 98 290 01 16 36 -14 -6
   87 Y:\Documents\OTTD graphics\HEQS_build\Full HEQS\sprites\standard_trailers/medium_trailer_tandem.pcx 146 290 09 20 26 -9 -7
   88 Y:\Documents\OTTD graphics\HEQS_build\Full HEQS\sprites\standard_trailers/medium_trailer_tandem.pcx 178 290 01 24 12 -9 -16
   89 Y:\Documents\OTTD graphics\HEQS_build\Full HEQS\sprites\standard_trailers/medium_trailer_tandem.pcx 210 290 09 20 26 -17 -7
   90 Y:\Documents\OTTD graphics\HEQS_build\Full HEQS\sprites\standard_trailers/medium_trailer_tandem.pcx 242 290 01 16 36 -30 -8
   91 Y:\Documents\OTTD graphics\HEQS_build\Full HEQS\sprites\standard_trailers/medium_trailer_tandem.pcx 290 290 09 20 26 -13 -10
  // Medium end dump - clay, loading
   92 Y:\Documents\OTTD graphics\HEQS_build\Full HEQS\sprites\standard_trailers/medium_trailer_tandem.pcx 34 410 01 24 12 -3 -10
   93 Y:\Documents\OTTD graphics\HEQS_build\Full HEQS\sprites\standard_trailers/medium_trailer_tandem.pcx 66 410 09 20 26 -11 -9
   94 Y:\Documents\OTTD graphics\HEQS_build\Full HEQS\sprites\standard_trailers/medium_trailer_tandem.pcx 98 410 01 16 36 -14 -6
   95 Y:\Documents\OTTD graphics\HEQS_build\Full HEQS\sprites\standard_trailers/medium_trailer_tandem.pcx 146 410 09 20 26 -9 -7
   96 Y:\Documents\OTTD graphics\HEQS_build\Full HEQS\sprites\standard_trailers/medium_trailer_tandem.pcx 178 410 01 24 12 -9 -16
   97 Y:\Documents\OTTD graphics\HEQS_build\Full HEQS\sprites\standard_trailers/medium_trailer_tandem.pcx 210 410 09 20 26 -17 -7
   98 Y:\Documents\OTTD graphics\HEQS_build\Full HEQS\sprites\standard_trailers/medium_trailer_tandem.pcx 242 410 01 16 36 -30 -8
   99 Y:\Documents\OTTD graphics\HEQS_build\Full HEQS\sprites\standard_trailers/medium_trailer_tandem.pcx 290 410 09 20 26 -13 -10
  // Medium end dump - clay, loaded
  100 Y:\Documents\OTTD graphics\HEQS_build\Full HEQS\sprites\standard_trailers/medium_trailer_tandem.pcx 34 450 01 24 12 -3 -10
  101 Y:\Documents\OTTD graphics\HEQS_build\Full HEQS\sprites\standard_trailers/medium_trailer_tandem.pcx 66 450 09 20 26 -11 -9
  102 Y:\Documents\OTTD graphics\HEQS_build\Full HEQS\sprites\standard_trailers/medium_trailer_tandem.pcx 98 450 01 16 36 -14 -6
  103 Y:\Documents\OTTD graphics\HEQS_build\Full HEQS\sprites\standard_trailers/medium_trailer_tandem.pcx 146 450 09 20 26 -9 -7
  104 Y:\Documents\OTTD graphics\HEQS_build\Full HEQS\sprites\standard_trailers/medium_trailer_tandem.pcx 178 450 01 24 12 -9 -16
  105 Y:\Documents\OTTD graphics\HEQS_build\Full HEQS\sprites\standard_trailers/medium_trailer_tandem.pcx 210 450 09 20 26 -17 -7
  106 Y:\Documents\OTTD graphics\HEQS_build\Full HEQS\sprites\standard_trailers/medium_trailer_tandem.pcx 242 450 01 16 36 -30 -8
  107 Y:\Documents\OTTD graphics\HEQS_build\Full HEQS\sprites\standard_trailers/medium_trailer_tandem.pcx 290 450 09 20 26 -13 -10
  // Medium end dump - copper ore, loading
  108 Y:\Documents\OTTD graphics\HEQS_build\Full HEQS\sprites\standard_trailers/medium_trailer_tandem.pcx 34 370 01 24 12 -3 -10
  109 Y:\Documents\OTTD graphics\HEQS_build\Full HEQS\sprites\standard_trailers/medium_trailer_tandem.pcx 66 370 09 20 26 -11 -9
  110 Y:\Documents\OTTD graphics\HEQS_build\Full HEQS\sprites\standard_trailers/medium_trailer_tandem.pcx 98 370 01 16 36 -14 -6
  111 Y:\Documents\OTTD graphics\HEQS_build\Full HEQS\sprites\standard_trailers/medium_trailer_tandem.pcx 146 370 09 20 26 -9 -7
  112 Y:\Documents\OTTD graphics\HEQS_build\Full HEQS\sprites\standard_trailers/medium_trailer_tandem.pcx 178 370 01 24 12 -9 -16
  113 Y:\Documents\OTTD graphics\HEQS_build\Full HEQS\sprites\standard_trailers/medium_trailer_tandem.pcx 210 370 09 20 26 -17 -7
  114 Y:\Documents\OTTD graphics\HEQS_build\Full HEQS\sprites\standard_trailers/medium_trailer_tandem.pcx 242 370 01 16 36 -30 -8
  115 Y:\Documents\OTTD graphics\HEQS_build\Full HEQS\sprites\standard_trailers/medium_trailer_tandem.pcx 290 370 09 20 26 -13 -10
  // Medium end dump - copper ore, loaded
  116 Y:\Documents\OTTD graphics\HEQS_build\Full HEQS\sprites\standard_trailers/medium_trailer_tandem.pcx 34 370 01 24 12 -3 -10
  117 Y:\Documents\OTTD graphics\HEQS_build\Full HEQS\sprites\standard_trailers/medium_trailer_tandem.pcx 66 370 09 20 26 -11 -9
  118 Y:\Documents\OTTD graphics\HEQS_build\Full HEQS\sprites\standard_trailers/medium_trailer_tandem.pcx 98 370 01 16 36 -14 -6
  119 Y:\Documents\OTTD graphics\HEQS_build\Full HEQS\sprites\standard_trailers/medium_trailer_tandem.pcx 146 370 09 20 26 -9 -7
  120 Y:\Documents\OTTD graphics\HEQS_build\Full HEQS\sprites\standard_trailers/medium_trailer_tandem.pcx 178 370 01 24 12 -9 -16
  121 Y:\Documents\OTTD graphics\HEQS_build\Full HEQS\sprites\standard_trailers/medium_trailer_tandem.pcx 210 370 09 20 26 -17 -7
  122 Y:\Documents\OTTD graphics\HEQS_build\Full HEQS\sprites\standard_trailers/medium_trailer_tandem.pcx 242 370 01 16 36 -30 -8
  123 Y:\Documents\OTTD graphics\HEQS_build\Full HEQS\sprites\standard_trailers/medium_trailer_tandem.pcx 290 370 09 20 26 -13 -10
  // Medium end dump - gravel, loading
  124 Y:\Documents\OTTD graphics\HEQS_build\Full HEQS\sprites\standard_trailers/medium_trailer_tandem.pcx 34 100 01 24 12 -3 -10
  125 Y:\Documents\OTTD graphics\HEQS_build\Full HEQS\sprites\standard_trailers/medium_trailer_tandem.pcx 66 100 09 20 26 -11 -9
  126 Y:\Documents\OTTD graphics\HEQS_build\Full HEQS\sprites\standard_trailers/medium_trailer_tandem.pcx 98 100 01 16 36 -14 -6
  127 Y:\Documents\OTTD graphics\HEQS_build\Full HEQS\sprites\standard_trailers/medium_trailer_tandem.pcx 146 100 09 20 26 -9 -7
  128 Y:\Documents\OTTD graphics\HEQS_build\Full HEQS\sprites\standard_trailers/medium_trailer_tandem.pcx 178 100 01 24 12 -9 -16
  129 Y:\Documents\OTTD graphics\HEQS_build\Full HEQS\sprites\standard_trailers/medium_trailer_tandem.pcx 210 100 09 20 26 -17 -7
  130 Y:\Documents\OTTD graphics\HEQS_build\Full HEQS\sprites\standard_trailers/medium_trailer_tandem.pcx 242 100 01 16 36 -30 -8
  131 Y:\Documents\OTTD graphics\HEQS_build\Full HEQS\sprites\standard_trailers/medium_trailer_tandem.pcx 290 100 09 20 26 -13 -10
  // Medium end dump - gravel, loaded
  132 Y:\Documents\OTTD graphics\HEQS_build\Full HEQS\sprites\standard_trailers/medium_trailer_tandem.pcx 34 100 01 24 12 -3 -10
  133 Y:\Documents\OTTD graphics\HEQS_build\Full HEQS\sprites\standard_trailers/medium_trailer_tandem.pcx 66 100 09 20 26 -11 -9
  134 Y:\Documents\OTTD graphics\HEQS_build\Full HEQS\sprites\standard_trailers/medium_trailer_tandem.pcx 98 100 01 16 36 -14 -6
  135 Y:\Documents\OTTD graphics\HEQS_build\Full HEQS\sprites\standard_trailers/medium_trailer_tandem.pcx 146 100 09 20 26 -9 -7
  136 Y:\Documents\OTTD graphics\HEQS_build\Full HEQS\sprites\standard_trailers/medium_trailer_tandem.pcx 178 100 01 24 12 -9 -16
  137 Y:\Documents\OTTD graphics\HEQS_build\Full HEQS\sprites\standard_trailers/medium_trailer_tandem.pcx 210 100 09 20 26 -17 -7
  138 Y:\Documents\OTTD graphics\HEQS_build\Full HEQS\sprites\standard_trailers/medium_trailer_tandem.pcx 242 100 01 16 36 -30 -8
  139 Y:\Documents\OTTD graphics\HEQS_build\Full HEQS\sprites\standard_trailers/medium_trailer_tandem.pcx 290 100 09 20 26 -13 -10
  140 * 17	 02 01 08  03 03    00 00  01 00  02 00    00 00  01 00  02 00 // iron ore
  141 * 17	 02 01 01  03 03    00 00  03 00  04 00    00 00  03 00  04 00 // coal
  142 * 17	 02 01 06  03 03    00 00  05 00  06 00    00 00  05 00  06 00 // grain
  143 * 17	 02 01 0E  03 03    00 00  07 00  08 00    00 00  07 00  08 00 // brown 
  144 * 17	 02 01 17  03 03    00 00  09 00  0A 00    00 00  09 00  0A 00 // red
  145 * 17	 02 01 11  03 03    00 00  0B 00  0C 00    00 00  0B 00  0C 00 // grey
  // Medium flat trailer / (also stake trailer ??)
  146 * 4	 01 01 0C 08
  // Medium flat trailer - empty
  147 Y:\Documents\OTTD graphics\HEQS_build\Full HEQS\sprites\standard_trailers/medium_trailer_tandem.pcx 34 730 01 24 12 -3 -10
  148 Y:\Documents\OTTD graphics\HEQS_build\Full HEQS\sprites\standard_trailers/medium_trailer_tandem.pcx 66 730 09 20 26 -11 -9
  149 Y:\Documents\OTTD graphics\HEQS_build\Full HEQS\sprites\standard_trailers/medium_trailer_tandem.pcx 98 730 01 16 36 -14 -6
  150 Y:\Documents\OTTD graphics\HEQS_build\Full HEQS\sprites\standard_trailers/medium_trailer_tandem.pcx 146 730 09 20 26 -9 -7
  151 Y:\Documents\OTTD graphics\HEQS_build\Full HEQS\sprites\standard_trailers/medium_trailer_tandem.pcx 178 730 01 24 12 -9 -16
  152 Y:\Documents\OTTD graphics\HEQS_build\Full HEQS\sprites\standard_trailers/medium_trailer_tandem.pcx 210 730 09 20 26 -17 -7
  153 Y:\Documents\OTTD graphics\HEQS_build\Full HEQS\sprites\standard_trailers/medium_trailer_tandem.pcx 242 730 01 16 36 -30 -8
  154 Y:\Documents\OTTD graphics\HEQS_build\Full HEQS\sprites\standard_trailers/medium_trailer_tandem.pcx 290 730 09 20 26 -13 -10
  // Medium flat trailer - steel, loading  
  155 Y:\Documents\OTTD graphics\HEQS_build\Full HEQS\sprites\standard_trailers/medium_trailer_tandem.pcx 34 970 01 24 12 -3 -10
  156 Y:\Documents\OTTD graphics\HEQS_build\Full HEQS\sprites\standard_trailers/medium_trailer_tandem.pcx 66 970 09 20 26 -11 -9
  157 Y:\Documents\OTTD graphics\HEQS_build\Full HEQS\sprites\standard_trailers/medium_trailer_tandem.pcx 98 970 01 16 36 -14 -6
  158 Y:\Documents\OTTD graphics\HEQS_build\Full HEQS\sprites\standard_trailers/medium_trailer_tandem.pcx 146 970 09 20 26 -9 -7
  159 Y:\Documents\OTTD graphics\HEQS_build\Full HEQS\sprites\standard_trailers/medium_trailer_tandem.pcx 178 970 01 24 12 -9 -16
  160 Y:\Documents\OTTD graphics\HEQS_build\Full HEQS\sprites\standard_trailers/medium_trailer_tandem.pcx 210 970 09 20 26 -17 -7
  161 Y:\Documents\OTTD graphics\HEQS_build\Full HEQS\sprites\standard_trailers/medium_trailer_tandem.pcx 242 970 01 16 36 -30 -8
  162 Y:\Documents\OTTD graphics\HEQS_build\Full HEQS\sprites\standard_trailers/medium_trailer_tandem.pcx 290 970 09 20 26 -13 -10
  // Medium flat trailer - steel, loaded  
  163 Y:\Documents\OTTD graphics\HEQS_build\Full HEQS\sprites\standard_trailers/medium_trailer_tandem.pcx 34 970 01 24 12 -3 -10
  164 Y:\Documents\OTTD graphics\HEQS_build\Full HEQS\sprites\standard_trailers/medium_trailer_tandem.pcx 66 970 09 20 26 -11 -9
  165 Y:\Documents\OTTD graphics\HEQS_build\Full HEQS\sprites\standard_trailers/medium_trailer_tandem.pcx 98 970 01 16 36 -14 -6
  166 Y:\Documents\OTTD graphics\HEQS_build\Full HEQS\sprites\standard_trailers/medium_trailer_tandem.pcx 146 970 09 20 26 -9 -7
  167 Y:\Documents\OTTD graphics\HEQS_build\Full HEQS\sprites\standard_trailers/medium_trailer_tandem.pcx 178 970 01 24 12 -9 -16
  168 Y:\Documents\OTTD graphics\HEQS_build\Full HEQS\sprites\standard_trailers/medium_trailer_tandem.pcx 210 970 09 20 26 -17 -7
  169 Y:\Documents\OTTD graphics\HEQS_build\Full HEQS\sprites\standard_trailers/medium_trailer_tandem.pcx 242 970 01 16 36 -30 -8
  170 Y:\Documents\OTTD graphics\HEQS_build\Full HEQS\sprites\standard_trailers/medium_trailer_tandem.pcx 290 970 09 20 26 -13 -10
  // Medium flat trailer - paper, loading  
  171 Y:\Documents\OTTD graphics\HEQS_build\Full HEQS\sprites\standard_trailers/medium_trailer_tandem.pcx 34 1130 01 24 12 -3 -10
  172 Y:\Documents\OTTD graphics\HEQS_build\Full HEQS\sprites\standard_trailers/medium_trailer_tandem.pcx 66 1130 09 20 26 -11 -9
  173 Y:\Documents\OTTD graphics\HEQS_build\Full HEQS\sprites\standard_trailers/medium_trailer_tandem.pcx 98 1130 01 16 36 -14 -6
  174 Y:\Documents\OTTD graphics\HEQS_build\Full HEQS\sprites\standard_trailers/medium_trailer_tandem.pcx 146 1130 09 20 26 -9 -7
  175 Y:\Documents\OTTD graphics\HEQS_build\Full HEQS\sprites\standard_trailers/medium_trailer_tandem.pcx 178 1130 01 24 12 -9 -16
  176 Y:\Documents\OTTD graphics\HEQS_build\Full HEQS\sprites\standard_trailers/medium_trailer_tandem.pcx 210 1130 09 20 26 -17 -7
  177 Y:\Documents\OTTD graphics\HEQS_build\Full HEQS\sprites\standard_trailers/medium_trailer_tandem.pcx 242 1130 01 16 36 -30 -8
  178 Y:\Documents\OTTD graphics\HEQS_build\Full HEQS\sprites\standard_trailers/medium_trailer_tandem.pcx 290 1130 09 20 26 -13 -10
  // Medium flat trailer - paper, loaded  
  179 Y:\Documents\OTTD graphics\HEQS_build\Full HEQS\sprites\standard_trailers/medium_trailer_tandem.pcx 34 1130 01 24 12 -3 -10
  180 Y:\Documents\OTTD graphics\HEQS_build\Full HEQS\sprites\standard_trailers/medium_trailer_tandem.pcx 66 1130 09 20 26 -11 -9
  181 Y:\Documents\OTTD graphics\HEQS_build\Full HEQS\sprites\standard_trailers/medium_trailer_tandem.pcx 98 1130 01 16 36 -14 -6
  182 Y:\Documents\OTTD graphics\HEQS_build\Full HEQS\sprites\standard_trailers/medium_trailer_tandem.pcx 146 1130 09 20 26 -9 -7
  183 Y:\Documents\OTTD graphics\HEQS_build\Full HEQS\sprites\standard_trailers/medium_trailer_tandem.pcx 178 1130 01 24 12 -9 -16
  184 Y:\Documents\OTTD graphics\HEQS_build\Full HEQS\sprites\standard_trailers/medium_trailer_tandem.pcx 210 1130 09 20 26 -17 -7
  185 Y:\Documents\OTTD graphics\HEQS_build\Full HEQS\sprites\standard_trailers/medium_trailer_tandem.pcx 242 1130 01 16 36 -30 -8
  186 Y:\Documents\OTTD graphics\HEQS_build\Full HEQS\sprites\standard_trailers/medium_trailer_tandem.pcx 290 1130 09 20 26 -13 -10
  // Medium stake trailer - empty
  187 Y:\Documents\OTTD graphics\HEQS_build\Full HEQS\sprites\standard_trailers/medium_trailer_tandem.pcx 34 610 01 24 12 -3 -10
  188 Y:\Documents\OTTD graphics\HEQS_build\Full HEQS\sprites\standard_trailers/medium_trailer_tandem.pcx 66 610 09 20 26 -11 -9
  189 Y:\Documents\OTTD graphics\HEQS_build\Full HEQS\sprites\standard_trailers/medium_trailer_tandem.pcx 98 610 01 16 36 -14 -6
  190 Y:\Documents\OTTD graphics\HEQS_build\Full HEQS\sprites\standard_trailers/medium_trailer_tandem.pcx 146 610 09 20 26 -9 -7
  191 Y:\Documents\OTTD graphics\HEQS_build\Full HEQS\sprites\standard_trailers/medium_trailer_tandem.pcx 178 610 01 24 12 -9 -16
  192 Y:\Documents\OTTD graphics\HEQS_build\Full HEQS\sprites\standard_trailers/medium_trailer_tandem.pcx 210 610 09 20 26 -17 -7
  193 Y:\Documents\OTTD graphics\HEQS_build\Full HEQS\sprites\standard_trailers/medium_trailer_tandem.pcx 242 610 01 16 36 -30 -8
  194 Y:\Documents\OTTD graphics\HEQS_build\Full HEQS\sprites\standard_trailers/medium_trailer_tandem.pcx 290 610 09 20 26 -13 -10
  // Medium stake trailer - wood, loading  
  195 Y:\Documents\OTTD graphics\HEQS_build\Full HEQS\sprites\standard_trailers/medium_trailer_tandem.pcx 34 650 01 24 12 -3 -10
  196 Y:\Documents\OTTD graphics\HEQS_build\Full HEQS\sprites\standard_trailers/medium_trailer_tandem.pcx 66 650 09 20 26 -11 -9
  197 Y:\Documents\OTTD graphics\HEQS_build\Full HEQS\sprites\standard_trailers/medium_trailer_tandem.pcx 98 650 01 16 36 -14 -6
  198 Y:\Documents\OTTD graphics\HEQS_build\Full HEQS\sprites\standard_trailers/medium_trailer_tandem.pcx 146 650 09 20 26 -9 -7
  199 Y:\Documents\OTTD graphics\HEQS_build\Full HEQS\sprites\standard_trailers/medium_trailer_tandem.pcx 178 650 01 24 12 -9 -16
  200 Y:\Documents\OTTD graphics\HEQS_build\Full HEQS\sprites\standard_trailers/medium_trailer_tandem.pcx 210 650 09 20 26 -17 -7
  201 Y:\Documents\OTTD graphics\HEQS_build\Full HEQS\sprites\standard_trailers/medium_trailer_tandem.pcx 242 650 01 16 36 -30 -8
  202 Y:\Documents\OTTD graphics\HEQS_build\Full HEQS\sprites\standard_trailers/medium_trailer_tandem.pcx 290 650 09 20 26 -13 -10
  // Medium stake trailer - wood, loaded  
  203 Y:\Documents\OTTD graphics\HEQS_build\Full HEQS\sprites\standard_trailers/medium_trailer_tandem.pcx 34 690 01 24 12 -3 -10
  204 Y:\Documents\OTTD graphics\HEQS_build\Full HEQS\sprites\standard_trailers/medium_trailer_tandem.pcx 66 690 09 20 26 -11 -9
  205 Y:\Documents\OTTD graphics\HEQS_build\Full HEQS\sprites\standard_trailers/medium_trailer_tandem.pcx 98 690 01 16 36 -14 -6
  206 Y:\Documents\OTTD graphics\HEQS_build\Full HEQS\sprites\standard_trailers/medium_trailer_tandem.pcx 146 690 09 20 26 -9 -7
  207 Y:\Documents\OTTD graphics\HEQS_build\Full HEQS\sprites\standard_trailers/medium_trailer_tandem.pcx 178 690 01 24 12 -9 -16
  208 Y:\Documents\OTTD graphics\HEQS_build\Full HEQS\sprites\standard_trailers/medium_trailer_tandem.pcx 210 690 09 20 26 -17 -7
  209 Y:\Documents\OTTD graphics\HEQS_build\Full HEQS\sprites\standard_trailers/medium_trailer_tandem.pcx 242 690 01 16 36 -30 -8
  210 Y:\Documents\OTTD graphics\HEQS_build\Full HEQS\sprites\standard_trailers/medium_trailer_tandem.pcx 290 690 09 20 26 -13 -10
 // Medium flat trailer - livestock, loading  
  211 Y:\Documents\OTTD graphics\HEQS_build\Full HEQS\sprites\standard_trailers/medium_trailer_tandem.pcx 34 810 01 24 12 -3 -10
  212 Y:\Documents\OTTD graphics\HEQS_build\Full HEQS\sprites\standard_trailers/medium_trailer_tandem.pcx 66 810 09 20 26 -11 -9
  213 Y:\Documents\OTTD graphics\HEQS_build\Full HEQS\sprites\standard_trailers/medium_trailer_tandem.pcx 98 810 01 16 36 -14 -6
  214 Y:\Documents\OTTD graphics\HEQS_build\Full HEQS\sprites\standard_trailers/medium_trailer_tandem.pcx 146 810 09 20 26 -9 -7
  215 Y:\Documents\OTTD graphics\HEQS_build\Full HEQS\sprites\standard_trailers/medium_trailer_tandem.pcx 178 810 01 24 12 -9 -16
  216 Y:\Documents\OTTD graphics\HEQS_build\Full HEQS\sprites\standard_trailers/medium_trailer_tandem.pcx 210 810 09 20 26 -17 -7
  217 Y:\Documents\OTTD graphics\HEQS_build\Full HEQS\sprites\standard_trailers/medium_trailer_tandem.pcx 242 810 01 16 36 -30 -8
  218 Y:\Documents\OTTD graphics\HEQS_build\Full HEQS\sprites\standard_trailers/medium_trailer_tandem.pcx 290 810 09 20 26 -13 -10
 // Medium flat trailer - livestock, loaded
  219 Y:\Documents\OTTD graphics\HEQS_build\Full HEQS\sprites\standard_trailers/medium_trailer_tandem.pcx 34 810 01 24 12 -3 -10
  220 Y:\Documents\OTTD graphics\HEQS_build\Full HEQS\sprites\standard_trailers/medium_trailer_tandem.pcx 66 810 09 20 26 -11 -9
  221 Y:\Documents\OTTD graphics\HEQS_build\Full HEQS\sprites\standard_trailers/medium_trailer_tandem.pcx 98 810 01 16 36 -14 -6
  222 Y:\Documents\OTTD graphics\HEQS_build\Full HEQS\sprites\standard_trailers/medium_trailer_tandem.pcx 146 810 09 20 26 -9 -7
  223 Y:\Documents\OTTD graphics\HEQS_build\Full HEQS\sprites\standard_trailers/medium_trailer_tandem.pcx 178 810 01 24 12 -9 -16
  224 Y:\Documents\OTTD graphics\HEQS_build\Full HEQS\sprites\standard_trailers/medium_trailer_tandem.pcx 210 810 09 20 26 -17 -7
  225 Y:\Documents\OTTD graphics\HEQS_build\Full HEQS\sprites\standard_trailers/medium_trailer_tandem.pcx 242 810 01 16 36 -30 -8
  226 Y:\Documents\OTTD graphics\HEQS_build\Full HEQS\sprites\standard_trailers/medium_trailer_tandem.pcx 290 810 09 20 26 -13 -10
 // Medium flat trailer - copper, loading  
  227 Y:\Documents\OTTD graphics\HEQS_build\Full HEQS\sprites\standard_trailers/medium_trailer_tandem.pcx 34 10 01 24 12 -3 -10
  228 Y:\Documents\OTTD graphics\HEQS_build\Full HEQS\sprites\standard_trailers/medium_trailer_tandem.pcx 66 10 09 20 26 -11 -9
  229 Y:\Documents\OTTD graphics\HEQS_build\Full HEQS\sprites\standard_trailers/medium_trailer_tandem.pcx 98 10 01 16 36 -14 -6
  230 Y:\Documents\OTTD graphics\HEQS_build\Full HEQS\sprites\standard_trailers/medium_trailer_tandem.pcx 146 10 09 20 26 -9 -7
  231 Y:\Documents\OTTD graphics\HEQS_build\Full HEQS\sprites\standard_trailers/medium_trailer_tandem.pcx 178 10 01 24 12 -9 -16
  232 Y:\Documents\OTTD graphics\HEQS_build\Full HEQS\sprites\standard_trailers/medium_trailer_tandem.pcx 210 10 09 20 26 -17 -7
  233 Y:\Documents\OTTD graphics\HEQS_build\Full HEQS\sprites\standard_trailers/medium_trailer_tandem.pcx 242 10 01 16 36 -30 -8
  234 Y:\Documents\OTTD graphics\HEQS_build\Full HEQS\sprites\standard_trailers/medium_trailer_tandem.pcx 290 10 09 20 26 -13 -10
 // Medium flat trailer - copper, loaded  
  235 Y:\Documents\OTTD graphics\HEQS_build\Full HEQS\sprites\standard_trailers/medium_trailer_tandem.pcx 34 10 01 24 12 -3 -10
  236 Y:\Documents\OTTD graphics\HEQS_build\Full HEQS\sprites\standard_trailers/medium_trailer_tandem.pcx 66 10 09 20 26 -11 -9
  237 Y:\Documents\OTTD graphics\HEQS_build\Full HEQS\sprites\standard_trailers/medium_trailer_tandem.pcx 98 10 01 16 36 -14 -6
  238 Y:\Documents\OTTD graphics\HEQS_build\Full HEQS\sprites\standard_trailers/medium_trailer_tandem.pcx 146 10 09 20 26 -9 -7
  239 Y:\Documents\OTTD graphics\HEQS_build\Full HEQS\sprites\standard_trailers/medium_trailer_tandem.pcx 178 10 01 24 12 -9 -16
  240 Y:\Documents\OTTD graphics\HEQS_build\Full HEQS\sprites\standard_trailers/medium_trailer_tandem.pcx 210 10 09 20 26 -17 -7
  241 Y:\Documents\OTTD graphics\HEQS_build\Full HEQS\sprites\standard_trailers/medium_trailer_tandem.pcx 242 10 01 16 36 -30 -8
  242 Y:\Documents\OTTD graphics\HEQS_build\Full HEQS\sprites\standard_trailers/medium_trailer_tandem.pcx 290 10 09 20 26 -13 -10

  243 * 17	 02 01 09  03 03   00 00  01 00  02 00    00 00  01 00  02 00
  244 * 17	 02 01 0B  03 03   00 00  03 00  04 00    00 00  03 00  04 00
  245 * 17	 02 01 07  03 03   05 00  06 00  07 00    05 00  06 00  07 00
  246 * 17	 02 01 04  03 03   00 00  07 00  08 00    00 00  07 00  08 00
  247 * 17	 02 01 18  03 03   00 00  09 00  0A 00    00 00  09 00  0A 00 
  248 * 17	 02 01 19  03 03   00 00  09 00  0B 00    00 00  09 00  0B 00 // copper ? 
  // Medium tank trailer
  249 * 4	 01 01 01 08
  250 Y:\Documents\OTTD graphics\HEQS_build\Full HEQS\sprites\standard_trailers/medium_trailer_tandem.pcx 34 10 01 24 12 -3 -10
  251 Y:\Documents\OTTD graphics\HEQS_build\Full HEQS\sprites\standard_trailers/medium_trailer_tandem.pcx 66 10 09 20 26 -11 -9
  252 Y:\Documents\OTTD graphics\HEQS_build\Full HEQS\sprites\standard_trailers/medium_trailer_tandem.pcx 98 10 01 16 36 -14 -6
  253 Y:\Documents\OTTD graphics\HEQS_build\Full HEQS\sprites\standard_trailers/medium_trailer_tandem.pcx 146 10 09 20 26 -9 -7
  254 Y:\Documents\OTTD graphics\HEQS_build\Full HEQS\sprites\standard_trailers/medium_trailer_tandem.pcx 178 10 01 24 12 -9 -16
  255 Y:\Documents\OTTD graphics\HEQS_build\Full HEQS\sprites\standard_trailers/medium_trailer_tandem.pcx 210 10 09 20 26 -17 -7
  256 Y:\Documents\OTTD graphics\HEQS_build\Full HEQS\sprites\standard_trailers/medium_trailer_tandem.pcx 242 10 01 16 36 -30 -8
  257 Y:\Documents\OTTD graphics\HEQS_build\Full HEQS\sprites\standard_trailers/medium_trailer_tandem.pcx 290 10 09 20 26 -13 -10
  258 * 9	 02 01 03   01 01    00 00    00 00
  259 * 4	 01 01 01 08
  260 Y:\Documents\OTTD graphics\HEQS_build\Full HEQS\sprites/heqs2.pcx 770 424 01 18 8 -3 -10
  261 Y:\Documents\OTTD graphics\HEQS_build\Full HEQS\sprites/heqs2.pcx 2 456 09 16 20 -14 -7
  262 Y:\Documents\OTTD graphics\HEQS_build\Full HEQS\sprites/heqs2.pcx 34 456 01 12 28 -14 -6
  263 Y:\Documents\OTTD graphics\HEQS_build\Full HEQS\sprites/heqs2.pcx 82 456 09 16 20 -6 -8
  264 Y:\Documents\OTTD graphics\HEQS_build\Full HEQS\sprites/heqs2.pcx 114 456 01 18 8 -3 -10
  265 Y:\Documents\OTTD graphics\HEQS_build\Full HEQS\sprites/heqs2.pcx 130 456 09 16 20 -14 -8
  266 Y:\Documents\OTTD graphics\HEQS_build\Full HEQS\sprites/heqs2.pcx 162 456 01 12 28 -14 -6
  267 Y:\Documents\OTTD graphics\HEQS_build\Full HEQS\sprites/heqs2.pcx 210 456 09 16 20 -6 -7
  268 * 9	 02 01 0C   01 01    00 00    00 00
  // Var action 2 ID schema: B = bulk, C = Covered, F = Flat
  269 * 18	 02 01 AC  // text suffixes
                 81 F2 00 FF //
                 02 // range
                  00 80 00 00 // 
                  01 80 01 01 //  
                 FF 80
//!!Warning (100): Default ID appears earlier in sprite.
//!!Warning (100): Default ID appears earlier in sprite.
  270 * 18	 02 01 AB  // choose sprites according to refit
                 81 F2 00 FF //
                 02 // range
                  05 00 00 00 // 
                  05 00 01 01 // 
                 05 00 // default 
  271 * 18	 02 01 AA  // handle callbacks
                 81 0C 00 FF //
                 02 // range
                  04 80 11 11 // vehicle length CB
                  AC 00 19 19 // text suffix CB 
                 AB 00 // graphics
  272 * 49	 03 01 01 00 // Action 3
    0E // Number of different cargo types to support (!! Hex) 
    01 01 00 // coal
    03 03 00 // oil
    04 04 00 // livestock
    06 06 00 // grain 
    07 07 00 // wood
    08 08 00 // iron ore
	  09 09 00 // steel
	  0B 0B 00 // paper
	  0E 0E 00 // copper ore
	  0F 03 00 // water
	  10 03 00 // rubber
	  1B 06 00 // wheat
	  1D 06 00 // maize
	  1E 07 00 // tropical wood
	  AA 00 // default (box trailer)

   // ------------ end of Medium Trailers ------------------ //

  // -------------- Bulldozer Trailers --------------- //

  // Bulldozer trailer standard
  273 * 67	 00 01 19 01 08
      00 00 00  // intro date
      02 20     // reliability
      03 19     // vehicle life
      04 23     // class life
      06 00     // climate
      07 05     // load amount
      08 E0     // speed in mph * 3.2
      09 08     // running cost factor
      0A 48 4C 00 00 13 00 14 20    // running cost base
      0E FF     // sprite ID
      0F 1E     // capacity
      10 06     // cargo type
      11 00     // cost factor
      12 00     // sound effect
      15 38     // speed in mph * 0.8
      16 00 00 00 00    // Bit mask of cargo types available for refitting
      17 30     // Callback flags bit mask
      1A 00     // Refit cost, using 25% of the purchase price cost base
      1B 00     // Retire vehicle early, this many years before the end of phase 2
      1C 02     // Miscellaneous vehicle flags 
      1D FF 03      // Refittable cargo classes
      1E 01 00      // Non-refittable cargo classes
      1F 60 B3 0A 00    // Long format introduction date     
  274 * 42	 04 01 7F 01 08 "[Generic Standard bulldozer Trailer]" 00
  // define additional text suffixes
  275 * 33	 04 00 81 02 00 D0
            		" (Wheeled Trailer)" 00	// D000 = "1st class"
               	" (Sled)" 00	// D001 = "2nd class"
  // Action 2 ID schema: 0 / 1 = wheeled trailer, 2 / 3 = sled
   // Standard bulldozer Goods Trailer
  276 * 4	 01 01 01 08
  277 Y:\Documents\OTTD graphics\HEQS_build\Full HEQS\sprites\standard_trailers/medium_trailer_4_wheel.pcx 34 570 01 24 12 -3 -10
  278 Y:\Documents\OTTD graphics\HEQS_build\Full HEQS\sprites\standard_trailers/medium_trailer_4_wheel.pcx 66 570 01 20 26 -11 -9
  279 Y:\Documents\OTTD graphics\HEQS_build\Full HEQS\sprites\standard_trailers/medium_trailer_4_wheel.pcx 98 570 01 16 36 -14 -6
  280 Y:\Documents\OTTD graphics\HEQS_build\Full HEQS\sprites\standard_trailers/medium_trailer_4_wheel.pcx 146 570 01 20 26 -9 -7
  281 Y:\Documents\OTTD graphics\HEQS_build\Full HEQS\sprites\standard_trailers/medium_trailer_4_wheel.pcx 178 570 01 24 12 -9 -16
  282 Y:\Documents\OTTD graphics\HEQS_build\Full HEQS\sprites\standard_trailers/medium_trailer_4_wheel.pcx 210 570 01 20 26 -17 -7
  283 Y:\Documents\OTTD graphics\HEQS_build\Full HEQS\sprites\standard_trailers/medium_trailer_4_wheel.pcx 242 570 01 16 36 -30 -8
  284 Y:\Documents\OTTD graphics\HEQS_build\Full HEQS\sprites\standard_trailers/medium_trailer_4_wheel.pcx 290 570 01 20 26 -13 -10
  285 * 9	 02 01 05   01 01   00 00    00 00
   // Standard bulldozer Goods Sled
  286 * 4	 01 01 01 08
  287 Y:\Documents\OTTD graphics\HEQS_build\Full HEQS\sprites\standard_trailers/medium_sled.pcx 34 570 01 24 12 -3 -10
  288 Y:\Documents\OTTD graphics\HEQS_build\Full HEQS\sprites\standard_trailers/medium_sled.pcx 66 570 01 20 26 -11 -9
  289 Y:\Documents\OTTD graphics\HEQS_build\Full HEQS\sprites\standard_trailers/medium_sled.pcx 98 570 01 16 36 -14 -6
  290 Y:\Documents\OTTD graphics\HEQS_build\Full HEQS\sprites\standard_trailers/medium_sled.pcx 146 570 01 20 26 -9 -7
  291 Y:\Documents\OTTD graphics\HEQS_build\Full HEQS\sprites\standard_trailers/medium_sled.pcx 178 570 01 24 12 -9 -16
  292 Y:\Documents\OTTD graphics\HEQS_build\Full HEQS\sprites\standard_trailers/medium_sled.pcx 210 570 01 20 26 -17 -7
  293 Y:\Documents\OTTD graphics\HEQS_build\Full HEQS\sprites\standard_trailers/medium_sled.pcx 242 570 01 16 36 -30 -8
  294 Y:\Documents\OTTD graphics\HEQS_build\Full HEQS\sprites\standard_trailers/medium_sled.pcx 290 570 01 20 26 -13 -10
  295 * 9	 02 01 25   01 01   00 00    00 00
   // Standard bulldozer end dump trailer - empty
  296 * 4	 01 01 0D 08
  297 Y:\Documents\OTTD graphics\HEQS_build\Full HEQS\sprites\standard_trailers/medium_trailer_4_wheel.pcx 34 50 01 24 12 -3 -10
  298 Y:\Documents\OTTD graphics\HEQS_build\Full HEQS\sprites\standard_trailers/medium_trailer_4_wheel.pcx 66 50 09 20 26 -11 -9
  299 Y:\Documents\OTTD graphics\HEQS_build\Full HEQS\sprites\standard_trailers/medium_trailer_4_wheel.pcx 98 50 01 16 36 -14 -6
  300 Y:\Documents\OTTD graphics\HEQS_build\Full HEQS\sprites\standard_trailers/medium_trailer_4_wheel.pcx 146 50 09 20 26 -9 -7
  301 Y:\Documents\OTTD graphics\HEQS_build\Full HEQS\sprites\standard_trailers/medium_trailer_4_wheel.pcx 178 50 01 24 12 -9 -16
  302 Y:\Documents\OTTD graphics\HEQS_build\Full HEQS\sprites\standard_trailers/medium_trailer_4_wheel.pcx 210 50 09 20 26 -17 -7
  303 Y:\Documents\OTTD graphics\HEQS_build\Full HEQS\sprites\standard_trailers/medium_trailer_4_wheel.pcx 242 50 01 16 36 -30 -8
  304 Y:\Documents\OTTD graphics\HEQS_build\Full HEQS\sprites\standard_trailers/medium_trailer_4_wheel.pcx 290 50 09 20 26 -13 -10
   // Standard bulldozer end dump - iron ore, loading
  305 Y:\Documents\OTTD graphics\HEQS_build\Full HEQS\sprites\standard_trailers/medium_trailer_4_wheel.pcx 34 490 01 24 12 -3 -10
  306 Y:\Documents\OTTD graphics\HEQS_build\Full HEQS\sprites\standard_trailers/medium_trailer_4_wheel.pcx 66 490 09 20 20 -11 -9
  307 Y:\Documents\OTTD graphics\HEQS_build\Full HEQS\sprites\standard_trailers/medium_trailer_4_wheel.pcx 98 490 01 16 36 -14 -6
  308 Y:\Documents\OTTD graphics\HEQS_build\Full HEQS\sprites\standard_trailers/medium_trailer_4_wheel.pcx 146 490 09 20 26 -9 -7
  309 Y:\Documents\OTTD graphics\HEQS_build\Full HEQS\sprites\standard_trailers/medium_trailer_4_wheel.pcx 178 490 01 24 12 -9 -16
  310 Y:\Documents\OTTD graphics\HEQS_build\Full HEQS\sprites\standard_trailers/medium_trailer_4_wheel.pcx 210 490 09 20 26 -17 -7
  311 Y:\Documents\OTTD graphics\HEQS_build\Full HEQS\sprites\standard_trailers/medium_trailer_4_wheel.pcx 242 490 01 16 36 -30 -8
  312 Y:\Documents\OTTD graphics\HEQS_build\Full HEQS\sprites\standard_trailers/medium_trailer_4_wheel.pcx 290 490 09 20 26 -13 -10
   // Standard bulldozer end dump - iron ore, loaded
  313 Y:\Documents\OTTD graphics\HEQS_build\Full HEQS\sprites\standard_trailers/medium_trailer_4_wheel.pcx 34 530 01 24 12 -3 -10
  314 Y:\Documents\OTTD graphics\HEQS_build\Full HEQS\sprites\standard_trailers/medium_trailer_4_wheel.pcx 66 530 09 20 20 -11 -9
  315 Y:\Documents\OTTD graphics\HEQS_build\Full HEQS\sprites\standard_trailers/medium_trailer_4_wheel.pcx 98 530 01 16 36 -14 -6
  316 Y:\Documents\OTTD graphics\HEQS_build\Full HEQS\sprites\standard_trailers/medium_trailer_4_wheel.pcx 146 530 09 20 26 -9 -7
  317 Y:\Documents\OTTD graphics\HEQS_build\Full HEQS\sprites\standard_trailers/medium_trailer_4_wheel.pcx 178 530 01 24 12 -9 -16
  318 Y:\Documents\OTTD graphics\HEQS_build\Full HEQS\sprites\standard_trailers/medium_trailer_4_wheel.pcx 210 530 09 20 26 -17 -7
  319 Y:\Documents\OTTD graphics\HEQS_build\Full HEQS\sprites\standard_trailers/medium_trailer_4_wheel.pcx 242 530 01 16 36 -30 -8
  320 Y:\Documents\OTTD graphics\HEQS_build\Full HEQS\sprites\standard_trailers/medium_trailer_4_wheel.pcx 290 530 09 20 26 -13 -10
   // Standard bulldozer end dump - coal, loading
  321 Y:\Documents\OTTD graphics\HEQS_build\Full HEQS\sprites\standard_trailers/medium_trailer_4_wheel.pcx 34 170 01 24 12 -3 -10
  322 Y:\Documents\OTTD graphics\HEQS_build\Full HEQS\sprites\standard_trailers/medium_trailer_4_wheel.pcx 66 170 09 20 26 -11 -9
  323 Y:\Documents\OTTD graphics\HEQS_build\Full HEQS\sprites\standard_trailers/medium_trailer_4_wheel.pcx 98 170 01 16 36 -14 -6
  324 Y:\Documents\OTTD graphics\HEQS_build\Full HEQS\sprites\standard_trailers/medium_trailer_4_wheel.pcx 146 170 09 20 26 -9 -7
  325 Y:\Documents\OTTD graphics\HEQS_build\Full HEQS\sprites\standard_trailers/medium_trailer_4_wheel.pcx 178 170 01 24 12 -9 -16
  326 Y:\Documents\OTTD graphics\HEQS_build\Full HEQS\sprites\standard_trailers/medium_trailer_4_wheel.pcx 210 170 09 20 26 -17 -7
  327 Y:\Documents\OTTD graphics\HEQS_build\Full HEQS\sprites\standard_trailers/medium_trailer_4_wheel.pcx 242 170 01 16 36 -30 -8
  328 Y:\Documents\OTTD graphics\HEQS_build\Full HEQS\sprites\standard_trailers/medium_trailer_4_wheel.pcx 290 170 09 20 26 -13 -10
   // Standard bulldozer end dump - coal, loaded
  329 Y:\Documents\OTTD graphics\HEQS_build\Full HEQS\sprites\standard_trailers/medium_trailer_4_wheel.pcx 34 210 01 24 12 -3 -10
  330 Y:\Documents\OTTD graphics\HEQS_build\Full HEQS\sprites\standard_trailers/medium_trailer_4_wheel.pcx 66 210 09 20 26 -11 -9
  331 Y:\Documents\OTTD graphics\HEQS_build\Full HEQS\sprites\standard_trailers/medium_trailer_4_wheel.pcx 98 210 01 16 36 -14 -6
  332 Y:\Documents\OTTD graphics\HEQS_build\Full HEQS\sprites\standard_trailers/medium_trailer_4_wheel.pcx 146 210 09 20 26 -9 -7
  333 Y:\Documents\OTTD graphics\HEQS_build\Full HEQS\sprites\standard_trailers/medium_trailer_4_wheel.pcx 178 210 01 24 12 -9 -16
  334 Y:\Documents\OTTD graphics\HEQS_build\Full HEQS\sprites\standard_trailers/medium_trailer_4_wheel.pcx 210 210 09 20 26 -17 -7
  335 Y:\Documents\OTTD graphics\HEQS_build\Full HEQS\sprites\standard_trailers/medium_trailer_4_wheel.pcx 242 210 01 16 36 -30 -8
  336 Y:\Documents\OTTD graphics\HEQS_build\Full HEQS\sprites\standard_trailers/medium_trailer_4_wheel.pcx 290 210 09 20 26 -13 -10
   // Standard bulldozer end dump - grain, loading
  337 Y:\Documents\OTTD graphics\HEQS_build\Full HEQS\sprites\standard_trailers/medium_trailer_4_wheel.pcx 34 250 01 24 12 -3 -10
  338 Y:\Documents\OTTD graphics\HEQS_build\Full HEQS\sprites\standard_trailers/medium_trailer_4_wheel.pcx 66 250 09 20 26 -11 -9
  339 Y:\Documents\OTTD graphics\HEQS_build\Full HEQS\sprites\standard_trailers/medium_trailer_4_wheel.pcx 98 250 01 16 36 -14 -6
  340 Y:\Documents\OTTD graphics\HEQS_build\Full HEQS\sprites\standard_trailers/medium_trailer_4_wheel.pcx 146 250 09 20 26 -9 -7
  341 Y:\Documents\OTTD graphics\HEQS_build\Full HEQS\sprites\standard_trailers/medium_trailer_4_wheel.pcx 178 250 01 24 12 -9 -16
  342 Y:\Documents\OTTD graphics\HEQS_build\Full HEQS\sprites\standard_trailers/medium_trailer_4_wheel.pcx 210 250 09 20 26 -17 -7
  343 Y:\Documents\OTTD graphics\HEQS_build\Full HEQS\sprites\standard_trailers/medium_trailer_4_wheel.pcx 242 250 01 16 36 -30 -8
  344 Y:\Documents\OTTD graphics\HEQS_build\Full HEQS\sprites\standard_trailers/medium_trailer_4_wheel.pcx 250 250 09 20 26 -13 -10
  // Standard bulldozer end dump - grain, loaded
  345 Y:\Documents\OTTD graphics\HEQS_build\Full HEQS\sprites\standard_trailers/medium_trailer_4_wheel.pcx 34 290 01 24 12 -3 -10
  346 Y:\Documents\OTTD graphics\HEQS_build\Full HEQS\sprites\standard_trailers/medium_trailer_4_wheel.pcx 66 290 09 20 26 -11 -9
  347 Y:\Documents\OTTD graphics\HEQS_build\Full HEQS\sprites\standard_trailers/medium_trailer_4_wheel.pcx 98 290 01 16 36 -14 -6
  348 Y:\Documents\OTTD graphics\HEQS_build\Full HEQS\sprites\standard_trailers/medium_trailer_4_wheel.pcx 146 290 09 20 26 -9 -7
  349 Y:\Documents\OTTD graphics\HEQS_build\Full HEQS\sprites\standard_trailers/medium_trailer_4_wheel.pcx 178 290 01 24 12 -9 -16
  350 Y:\Documents\OTTD graphics\HEQS_build\Full HEQS\sprites\standard_trailers/medium_trailer_4_wheel.pcx 210 290 09 20 26 -17 -7
  351 Y:\Documents\OTTD graphics\HEQS_build\Full HEQS\sprites\standard_trailers/medium_trailer_4_wheel.pcx 242 290 01 16 36 -30 -8
  352 Y:\Documents\OTTD graphics\HEQS_build\Full HEQS\sprites\standard_trailers/medium_trailer_4_wheel.pcx 290 290 09 20 26 -13 -10
  // Standard bulldozer end dump - brown, loading
  353 Y:\Documents\OTTD graphics\HEQS_build\Full HEQS\sprites\standard_trailers/medium_trailer_4_wheel.pcx 34 410 01 24 12 -3 -10
  354 Y:\Documents\OTTD graphics\HEQS_build\Full HEQS\sprites\standard_trailers/medium_trailer_4_wheel.pcx 66 410 09 20 26 -11 -9
  355 Y:\Documents\OTTD graphics\HEQS_build\Full HEQS\sprites\standard_trailers/medium_trailer_4_wheel.pcx 98 410 01 16 36 -14 -6
  356 Y:\Documents\OTTD graphics\HEQS_build\Full HEQS\sprites\standard_trailers/medium_trailer_4_wheel.pcx 146 410 09 20 26 -9 -7
  357 Y:\Documents\OTTD graphics\HEQS_build\Full HEQS\sprites\standard_trailers/medium_trailer_4_wheel.pcx 178 410 01 24 12 -9 -16
  358 Y:\Documents\OTTD graphics\HEQS_build\Full HEQS\sprites\standard_trailers/medium_trailer_4_wheel.pcx 210 410 09 20 26 -17 -7
  359 Y:\Documents\OTTD graphics\HEQS_build\Full HEQS\sprites\standard_trailers/medium_trailer_4_wheel.pcx 242 410 01 16 36 -30 -8
  360 Y:\Documents\OTTD graphics\HEQS_build\Full HEQS\sprites\standard_trailers/medium_trailer_4_wheel.pcx 290 410 09 20 26 -13 -10
  // Standard bulldozer end dump - brown, loaded
  361 Y:\Documents\OTTD graphics\HEQS_build\Full HEQS\sprites\standard_trailers/medium_trailer_4_wheel.pcx 34 450 01 24 12 -3 -10
  362 Y:\Documents\OTTD graphics\HEQS_build\Full HEQS\sprites\standard_trailers/medium_trailer_4_wheel.pcx 66 450 09 20 26 -11 -9
  363 Y:\Documents\OTTD graphics\HEQS_build\Full HEQS\sprites\standard_trailers/medium_trailer_4_wheel.pcx 98 450 01 16 36 -14 -6
  364 Y:\Documents\OTTD graphics\HEQS_build\Full HEQS\sprites\standard_trailers/medium_trailer_4_wheel.pcx 146 450 09 20 26 -9 -7
  365 Y:\Documents\OTTD graphics\HEQS_build\Full HEQS\sprites\standard_trailers/medium_trailer_4_wheel.pcx 178 450 01 24 12 -9 -16
  366 Y:\Documents\OTTD graphics\HEQS_build\Full HEQS\sprites\standard_trailers/medium_trailer_4_wheel.pcx 210 450 09 20 26 -17 -7
  367 Y:\Documents\OTTD graphics\HEQS_build\Full HEQS\sprites\standard_trailers/medium_trailer_4_wheel.pcx 242 450 01 16 36 -30 -8
  368 Y:\Documents\OTTD graphics\HEQS_build\Full HEQS\sprites\standard_trailers/medium_trailer_4_wheel.pcx 290 450 09 20 26 -13 -10
  // Standard bulldozer end dump - red, loading
  369 Y:\Documents\OTTD graphics\HEQS_build\Full HEQS\sprites\standard_trailers/medium_trailer_4_wheel.pcx 34 370 01 24 12 -3 -10
  370 Y:\Documents\OTTD graphics\HEQS_build\Full HEQS\sprites\standard_trailers/medium_trailer_4_wheel.pcx 66 370 09 20 26 -11 -9
  371 Y:\Documents\OTTD graphics\HEQS_build\Full HEQS\sprites\standard_trailers/medium_trailer_4_wheel.pcx 98 370 01 16 36 -14 -6
  372 Y:\Documents\OTTD graphics\HEQS_build\Full HEQS\sprites\standard_trailers/medium_trailer_4_wheel.pcx 146 370 09 20 26 -9 -7
  373 Y:\Documents\OTTD graphics\HEQS_build\Full HEQS\sprites\standard_trailers/medium_trailer_4_wheel.pcx 178 370 01 24 12 -9 -16
  374 Y:\Documents\OTTD graphics\HEQS_build\Full HEQS\sprites\standard_trailers/medium_trailer_4_wheel.pcx 210 370 09 20 26 -17 -7
  375 Y:\Documents\OTTD graphics\HEQS_build\Full HEQS\sprites\standard_trailers/medium_trailer_4_wheel.pcx 242 370 01 16 36 -30 -8
  376 Y:\Documents\OTTD graphics\HEQS_build\Full HEQS\sprites\standard_trailers/medium_trailer_4_wheel.pcx 290 370 09 20 26 -13 -10
  // Standard bulldozer end dump - red, loaded
  377 Y:\Documents\OTTD graphics\HEQS_build\Full HEQS\sprites\standard_trailers/medium_trailer_4_wheel.pcx 34 370 01 24 12 -3 -10
  378 Y:\Documents\OTTD graphics\HEQS_build\Full HEQS\sprites\standard_trailers/medium_trailer_4_wheel.pcx 66 370 09 20 26 -11 -9
  379 Y:\Documents\OTTD graphics\HEQS_build\Full HEQS\sprites\standard_trailers/medium_trailer_4_wheel.pcx 98 370 01 16 36 -14 -6
  380 Y:\Documents\OTTD graphics\HEQS_build\Full HEQS\sprites\standard_trailers/medium_trailer_4_wheel.pcx 146 370 09 20 26 -9 -7
  381 Y:\Documents\OTTD graphics\HEQS_build\Full HEQS\sprites\standard_trailers/medium_trailer_4_wheel.pcx 178 370 01 24 12 -9 -16
  382 Y:\Documents\OTTD graphics\HEQS_build\Full HEQS\sprites\standard_trailers/medium_trailer_4_wheel.pcx 210 370 09 20 26 -17 -7
  383 Y:\Documents\OTTD graphics\HEQS_build\Full HEQS\sprites\standard_trailers/medium_trailer_4_wheel.pcx 242 370 01 16 36 -30 -8
  384 Y:\Documents\OTTD graphics\HEQS_build\Full HEQS\sprites\standard_trailers/medium_trailer_4_wheel.pcx 290 370 09 20 26 -13 -10
  // Standard bulldozer end dump - grey, loading
  385 Y:\Documents\OTTD graphics\HEQS_build\Full HEQS\sprites\standard_trailers/medium_trailer_4_wheel.pcx 34 90 01 24 12 -3 -10
  386 Y:\Documents\OTTD graphics\HEQS_build\Full HEQS\sprites\standard_trailers/medium_trailer_4_wheel.pcx 66 90 09 20 26 -11 -9
  387 Y:\Documents\OTTD graphics\HEQS_build\Full HEQS\sprites\standard_trailers/medium_trailer_4_wheel.pcx 98 90 01 16 36 -14 -6
  388 Y:\Documents\OTTD graphics\HEQS_build\Full HEQS\sprites\standard_trailers/medium_trailer_4_wheel.pcx 146 90 09 20 26 -9 -7
  389 Y:\Documents\OTTD graphics\HEQS_build\Full HEQS\sprites\standard_trailers/medium_trailer_4_wheel.pcx 178 90 01 24 12 -9 -16
  390 Y:\Documents\OTTD graphics\HEQS_build\Full HEQS\sprites\standard_trailers/medium_trailer_4_wheel.pcx 210 90 09 20 26 -17 -7
  391 Y:\Documents\OTTD graphics\HEQS_build\Full HEQS\sprites\standard_trailers/medium_trailer_4_wheel.pcx 242 90 01 16 36 -30 -8
  392 Y:\Documents\OTTD graphics\HEQS_build\Full HEQS\sprites\standard_trailers/medium_trailer_4_wheel.pcx 290 90 09 20 26 -13 -10
  // Standard bulldozer end dump - grey, loaded
  393 Y:\Documents\OTTD graphics\HEQS_build\Full HEQS\sprites\standard_trailers/medium_trailer_4_wheel.pcx 34 130 01 24 12 -3 -10
  394 Y:\Documents\OTTD graphics\HEQS_build\Full HEQS\sprites\standard_trailers/medium_trailer_4_wheel.pcx 66 130 09 20 26 -11 -9
  395 Y:\Documents\OTTD graphics\HEQS_build\Full HEQS\sprites\standard_trailers/medium_trailer_4_wheel.pcx 98 130 01 16 36 -14 -6
  396 Y:\Documents\OTTD graphics\HEQS_build\Full HEQS\sprites\standard_trailers/medium_trailer_4_wheel.pcx 146 130 09 20 26 -9 -7
  397 Y:\Documents\OTTD graphics\HEQS_build\Full HEQS\sprites\standard_trailers/medium_trailer_4_wheel.pcx 178 130 01 24 12 -9 -16
  398 Y:\Documents\OTTD graphics\HEQS_build\Full HEQS\sprites\standard_trailers/medium_trailer_4_wheel.pcx 210 130 09 20 26 -17 -7
  399 Y:\Documents\OTTD graphics\HEQS_build\Full HEQS\sprites\standard_trailers/medium_trailer_4_wheel.pcx 242 130 01 16 36 -30 -8
  400 Y:\Documents\OTTD graphics\HEQS_build\Full HEQS\sprites\standard_trailers/medium_trailer_4_wheel.pcx 290 130 09 20 26 -13 -10
  401 * 17	 02 01 08  03 03    00 00  01 00  02 00    00 00  01 00  02 00 // iron ore ?
  402 * 17	 02 01 01  03 03    00 00  03 00  04 00    00 00  03 00  04 00 // coal ?
  403 * 17	 02 01 06  03 03    00 00  05 00  06 00    00 00  05 00  06 00 // grain ?
  404 * 17	 02 01 0E  03 03    00 00  07 00  08 00    00 00  07 00  08 00 // brown ?
//!!Warning (94): Redefining ID 0C not used since previous definition at sprite 268.
  405 * 17	 02 01 0C  03 03    00 00  09 00  0A 00    00 00  09 00  0A 00 // red ?
  406 * 17	 02 01 0D  03 03    00 00  0B 00  0C 00    00 00  0B 00  0C 00 // grey ?
  // Standard bulldozer side dump sled - empty
  407 * 4	 01 01 0D 08
  408 Y:\Documents\OTTD graphics\HEQS_build\Full HEQS\sprites\standard_trailers/medium_sled.pcx 34 50 01 24 12 -3 -10
  409 Y:\Documents\OTTD graphics\HEQS_build\Full HEQS\sprites\standard_trailers/medium_sled.pcx 66 50 09 20 26 -11 -9
  410 Y:\Documents\OTTD graphics\HEQS_build\Full HEQS\sprites\standard_trailers/medium_sled.pcx 98 50 01 16 36 -14 -6
  411 Y:\Documents\OTTD graphics\HEQS_build\Full HEQS\sprites\standard_trailers/medium_sled.pcx 146 50 09 20 26 -9 -7
  412 Y:\Documents\OTTD graphics\HEQS_build\Full HEQS\sprites\standard_trailers/medium_sled.pcx 178 50 01 24 12 -9 -16
  413 Y:\Documents\OTTD graphics\HEQS_build\Full HEQS\sprites\standard_trailers/medium_sled.pcx 210 50 09 20 26 -17 -7
  414 Y:\Documents\OTTD graphics\HEQS_build\Full HEQS\sprites\standard_trailers/medium_sled.pcx 242 50 01 16 36 -30 -8
  415 Y:\Documents\OTTD graphics\HEQS_build\Full HEQS\sprites\standard_trailers/medium_sled.pcx 290 50 09 20 26 -13 -10
   // Standard bulldozer side dump sled - iron ore, loading  !! this isn't iron ore??
  416 Y:\Documents\OTTD graphics\HEQS_build\Full HEQS\sprites\standard_trailers/medium_sled.pcx 34 490 01 24 12 -3 -10
  417 Y:\Documents\OTTD graphics\HEQS_build\Full HEQS\sprites\standard_trailers/medium_sled.pcx 66 490 09 20 20 -11 -9
  418 Y:\Documents\OTTD graphics\HEQS_build\Full HEQS\sprites\standard_trailers/medium_sled.pcx 98 490 01 16 36 -14 -6
  419 Y:\Documents\OTTD graphics\HEQS_build\Full HEQS\sprites\standard_trailers/medium_sled.pcx 146 490 09 20 26 -9 -7
  420 Y:\Documents\OTTD graphics\HEQS_build\Full HEQS\sprites\standard_trailers/medium_sled.pcx 178 490 01 24 12 -9 -16
  421 Y:\Documents\OTTD graphics\HEQS_build\Full HEQS\sprites\standard_trailers/medium_sled.pcx 210 490 09 20 26 -17 -7
  422 Y:\Documents\OTTD graphics\HEQS_build\Full HEQS\sprites\standard_trailers/medium_sled.pcx 242 490 01 16 36 -30 -8
  423 Y:\Documents\OTTD graphics\HEQS_build\Full HEQS\sprites\standard_trailers/medium_sled.pcx 290 490 09 20 26 -13 -10
   // Standard bulldozer side dump sled - iron ore, loaded  !! this isn't iron ore??
  424 Y:\Documents\OTTD graphics\HEQS_build\Full HEQS\sprites\standard_trailers/medium_sled.pcx 34 530 01 24 12 -3 -10
  425 Y:\Documents\OTTD graphics\HEQS_build\Full HEQS\sprites\standard_trailers/medium_sled.pcx 66 530 09 20 20 -11 -9
  426 Y:\Documents\OTTD graphics\HEQS_build\Full HEQS\sprites\standard_trailers/medium_sled.pcx 98 530 01 16 36 -14 -6
  427 Y:\Documents\OTTD graphics\HEQS_build\Full HEQS\sprites\standard_trailers/medium_sled.pcx 146 530 09 20 26 -9 -7
  428 Y:\Documents\OTTD graphics\HEQS_build\Full HEQS\sprites\standard_trailers/medium_sled.pcx 178 530 01 24 12 -9 -16
  429 Y:\Documents\OTTD graphics\HEQS_build\Full HEQS\sprites\standard_trailers/medium_sled.pcx 210 530 09 20 26 -17 -7
  430 Y:\Documents\OTTD graphics\HEQS_build\Full HEQS\sprites\standard_trailers/medium_sled.pcx 242 530 01 16 36 -30 -8
  431 Y:\Documents\OTTD graphics\HEQS_build\Full HEQS\sprites\standard_trailers/medium_sled.pcx 290 530 09 20 26 -13 -10
   // Standard bulldozer side dump sled - coal, loading
  432 Y:\Documents\OTTD graphics\HEQS_build\Full HEQS\sprites\standard_trailers/medium_sled.pcx 34 170 01 24 12 -3 -10
  433 Y:\Documents\OTTD graphics\HEQS_build\Full HEQS\sprites\standard_trailers/medium_sled.pcx 66 170 09 20 26 -11 -9
  434 Y:\Documents\OTTD graphics\HEQS_build\Full HEQS\sprites\standard_trailers/medium_sled.pcx 98 170 01 16 36 -14 -6
  435 Y:\Documents\OTTD graphics\HEQS_build\Full HEQS\sprites\standard_trailers/medium_sled.pcx 146 170 09 20 26 -9 -7
  436 Y:\Documents\OTTD graphics\HEQS_build\Full HEQS\sprites\standard_trailers/medium_sled.pcx 178 170 01 24 12 -9 -16
  437 Y:\Documents\OTTD graphics\HEQS_build\Full HEQS\sprites\standard_trailers/medium_sled.pcx 210 170 09 20 26 -17 -7
  438 Y:\Documents\OTTD graphics\HEQS_build\Full HEQS\sprites\standard_trailers/medium_sled.pcx 242 170 01 16 36 -30 -8
  439 Y:\Documents\OTTD graphics\HEQS_build\Full HEQS\sprites\standard_trailers/medium_sled.pcx 290 170 09 20 26 -13 -10
   // Standard bulldozer side dump sled - coal, loaded
  440 Y:\Documents\OTTD graphics\HEQS_build\Full HEQS\sprites\standard_trailers/medium_sled.pcx 34 210 01 24 12 -3 -10
  441 Y:\Documents\OTTD graphics\HEQS_build\Full HEQS\sprites\standard_trailers/medium_sled.pcx 66 210 09 20 26 -11 -9
  442 Y:\Documents\OTTD graphics\HEQS_build\Full HEQS\sprites\standard_trailers/medium_sled.pcx 98 210 01 16 36 -14 -6
  443 Y:\Documents\OTTD graphics\HEQS_build\Full HEQS\sprites\standard_trailers/medium_sled.pcx 146 210 09 20 26 -9 -7
  444 Y:\Documents\OTTD graphics\HEQS_build\Full HEQS\sprites\standard_trailers/medium_sled.pcx 178 210 01 24 12 -9 -16
  445 Y:\Documents\OTTD graphics\HEQS_build\Full HEQS\sprites\standard_trailers/medium_sled.pcx 210 210 09 20 26 -17 -7
  446 Y:\Documents\OTTD graphics\HEQS_build\Full HEQS\sprites\standard_trailers/medium_sled.pcx 242 210 01 16 36 -30 -8
  447 Y:\Documents\OTTD graphics\HEQS_build\Full HEQS\sprites\standard_trailers/medium_sled.pcx 290 210 09 20 26 -13 -10
   // Standard bulldozer side dump sled - grain, loading
  448 Y:\Documents\OTTD graphics\HEQS_build\Full HEQS\sprites\standard_trailers/medium_sled.pcx 34 250 01 24 12 -3 -10
  449 Y:\Documents\OTTD graphics\HEQS_build\Full HEQS\sprites\standard_trailers/medium_sled.pcx 66 250 09 20 26 -11 -9
  450 Y:\Documents\OTTD graphics\HEQS_build\Full HEQS\sprites\standard_trailers/medium_sled.pcx 98 250 01 16 36 -14 -6
  451 Y:\Documents\OTTD graphics\HEQS_build\Full HEQS\sprites\standard_trailers/medium_sled.pcx 146 250 09 20 26 -9 -7
  452 Y:\Documents\OTTD graphics\HEQS_build\Full HEQS\sprites\standard_trailers/medium_sled.pcx 178 250 01 24 12 -9 -16
  453 Y:\Documents\OTTD graphics\HEQS_build\Full HEQS\sprites\standard_trailers/medium_sled.pcx 210 250 09 20 26 -17 -7
  454 Y:\Documents\OTTD graphics\HEQS_build\Full HEQS\sprites\standard_trailers/medium_sled.pcx 242 250 01 16 36 -30 -8
  455 Y:\Documents\OTTD graphics\HEQS_build\Full HEQS\sprites\standard_trailers/medium_sled.pcx 250 250 09 20 26 -13 -10
  // Standard bulldozer side dump sled - grain, loaded
  456 Y:\Documents\OTTD graphics\HEQS_build\Full HEQS\sprites\standard_trailers/medium_sled.pcx 34 290 01 24 12 -3 -10
  457 Y:\Documents\OTTD graphics\HEQS_build\Full HEQS\sprites\standard_trailers/medium_sled.pcx 66 290 09 20 26 -11 -9
  458 Y:\Documents\OTTD graphics\HEQS_build\Full HEQS\sprites\standard_trailers/medium_sled.pcx 98 290 01 16 36 -14 -6
  459 Y:\Documents\OTTD graphics\HEQS_build\Full HEQS\sprites\standard_trailers/medium_sled.pcx 146 290 09 20 26 -9 -7
  460 Y:\Documents\OTTD graphics\HEQS_build\Full HEQS\sprites\standard_trailers/medium_sled.pcx 178 290 01 24 12 -9 -16
  461 Y:\Documents\OTTD graphics\HEQS_build\Full HEQS\sprites\standard_trailers/medium_sled.pcx 210 290 09 20 26 -17 -7
  462 Y:\Documents\OTTD graphics\HEQS_build\Full HEQS\sprites\standard_trailers/medium_sled.pcx 242 290 01 16 36 -30 -8
  463 Y:\Documents\OTTD graphics\HEQS_build\Full HEQS\sprites\standard_trailers/medium_sled.pcx 290 290 09 20 26 -13 -10
  // Standard bulldozer side dump sled - clay, loading
  464 Y:\Documents\OTTD graphics\HEQS_build\Full HEQS\sprites\standard_trailers/medium_sled.pcx 34 410 01 24 12 -3 -10
  465 Y:\Documents\OTTD graphics\HEQS_build\Full HEQS\sprites\standard_trailers/medium_sled.pcx 66 410 09 20 26 -11 -9
  466 Y:\Documents\OTTD graphics\HEQS_build\Full HEQS\sprites\standard_trailers/medium_sled.pcx 98 410 01 16 36 -14 -6
  467 Y:\Documents\OTTD graphics\HEQS_build\Full HEQS\sprites\standard_trailers/medium_sled.pcx 146 410 09 20 26 -9 -7
  468 Y:\Documents\OTTD graphics\HEQS_build\Full HEQS\sprites\standard_trailers/medium_sled.pcx 178 410 01 24 12 -9 -16
  469 Y:\Documents\OTTD graphics\HEQS_build\Full HEQS\sprites\standard_trailers/medium_sled.pcx 210 410 09 20 26 -17 -7
  470 Y:\Documents\OTTD graphics\HEQS_build\Full HEQS\sprites\standard_trailers/medium_sled.pcx 242 410 01 16 36 -30 -8
  471 Y:\Documents\OTTD graphics\HEQS_build\Full HEQS\sprites\standard_trailers/medium_sled.pcx 290 410 09 20 26 -13 -10
  // Standard bulldozer side dump sled - clay, loaded
  472 Y:\Documents\OTTD graphics\HEQS_build\Full HEQS\sprites\standard_trailers/medium_sled.pcx 34 450 01 24 12 -3 -10
  473 Y:\Documents\OTTD graphics\HEQS_build\Full HEQS\sprites\standard_trailers/medium_sled.pcx 66 450 09 20 26 -11 -9
  474 Y:\Documents\OTTD graphics\HEQS_build\Full HEQS\sprites\standard_trailers/medium_sled.pcx 98 450 01 16 36 -14 -6
  475 Y:\Documents\OTTD graphics\HEQS_build\Full HEQS\sprites\standard_trailers/medium_sled.pcx 146 450 09 20 26 -9 -7
  476 Y:\Documents\OTTD graphics\HEQS_build\Full HEQS\sprites\standard_trailers/medium_sled.pcx 178 450 01 24 12 -9 -16
  477 Y:\Documents\OTTD graphics\HEQS_build\Full HEQS\sprites\standard_trailers/medium_sled.pcx 210 450 09 20 26 -17 -7
  478 Y:\Documents\OTTD graphics\HEQS_build\Full HEQS\sprites\standard_trailers/medium_sled.pcx 242 450 01 16 36 -30 -8
  479 Y:\Documents\OTTD graphics\HEQS_build\Full HEQS\sprites\standard_trailers/medium_sled.pcx 290 450 09 20 26 -13 -10
  // Standard bulldozer side dump sled - copper ore, loading
  480 Y:\Documents\OTTD graphics\HEQS_build\Full HEQS\sprites\standard_trailers/medium_sled.pcx 34 370 01 24 12 -3 -10
  481 Y:\Documents\OTTD graphics\HEQS_build\Full HEQS\sprites\standard_trailers/medium_sled.pcx 66 370 09 20 26 -11 -9
  482 Y:\Documents\OTTD graphics\HEQS_build\Full HEQS\sprites\standard_trailers/medium_sled.pcx 98 370 01 16 36 -14 -6
  483 Y:\Documents\OTTD graphics\HEQS_build\Full HEQS\sprites\standard_trailers/medium_sled.pcx 146 370 09 20 26 -9 -7
  484 Y:\Documents\OTTD graphics\HEQS_build\Full HEQS\sprites\standard_trailers/medium_sled.pcx 178 370 01 24 12 -9 -16
  485 Y:\Documents\OTTD graphics\HEQS_build\Full HEQS\sprites\standard_trailers/medium_sled.pcx 210 370 09 20 26 -17 -7
  486 Y:\Documents\OTTD graphics\HEQS_build\Full HEQS\sprites\standard_trailers/medium_sled.pcx 242 370 01 16 36 -30 -8
  487 Y:\Documents\OTTD graphics\HEQS_build\Full HEQS\sprites\standard_trailers/medium_sled.pcx 290 370 09 20 26 -13 -10
  // Standard bulldozer side dump sled - copper ore, loaded
  488 Y:\Documents\OTTD graphics\HEQS_build\Full HEQS\sprites\standard_trailers/medium_sled.pcx 34 370 01 24 12 -3 -10
  489 Y:\Documents\OTTD graphics\HEQS_build\Full HEQS\sprites\standard_trailers/medium_sled.pcx 66 370 09 20 26 -11 -9
  490 Y:\Documents\OTTD graphics\HEQS_build\Full HEQS\sprites\standard_trailers/medium_sled.pcx 98 370 01 16 36 -14 -6
  491 Y:\Documents\OTTD graphics\HEQS_build\Full HEQS\sprites\standard_trailers/medium_sled.pcx 146 370 09 20 26 -9 -7
  492 Y:\Documents\OTTD graphics\HEQS_build\Full HEQS\sprites\standard_trailers/medium_sled.pcx 178 370 01 24 12 -9 -16
  493 Y:\Documents\OTTD graphics\HEQS_build\Full HEQS\sprites\standard_trailers/medium_sled.pcx 210 370 09 20 26 -17 -7
  494 Y:\Documents\OTTD graphics\HEQS_build\Full HEQS\sprites\standard_trailers/medium_sled.pcx 242 370 01 16 36 -30 -8
  495 Y:\Documents\OTTD graphics\HEQS_build\Full HEQS\sprites\standard_trailers/medium_sled.pcx 290 370 09 20 26 -13 -10
  // Standard bulldozer side dump sled - gravel, loading
  496 Y:\Documents\OTTD graphics\HEQS_build\Full HEQS\sprites\standard_trailers/medium_sled.pcx 34 100 01 24 12 -3 -10
  497 Y:\Documents\OTTD graphics\HEQS_build\Full HEQS\sprites\standard_trailers/medium_sled.pcx 66 100 09 20 26 -11 -9
  498 Y:\Documents\OTTD graphics\HEQS_build\Full HEQS\sprites\standard_trailers/medium_sled.pcx 98 100 01 16 36 -14 -6
  499 Y:\Documents\OTTD graphics\HEQS_build\Full HEQS\sprites\standard_trailers/medium_sled.pcx 146 100 09 20 26 -9 -7
  500 Y:\Documents\OTTD graphics\HEQS_build\Full HEQS\sprites\standard_trailers/medium_sled.pcx 178 100 01 24 12 -9 -16
  501 Y:\Documents\OTTD graphics\HEQS_build\Full HEQS\sprites\standard_trailers/medium_sled.pcx 210 100 09 20 26 -17 -7
  502 Y:\Documents\OTTD graphics\HEQS_build\Full HEQS\sprites\standard_trailers/medium_sled.pcx 242 100 01 16 36 -30 -8
  503 Y:\Documents\OTTD graphics\HEQS_build\Full HEQS\sprites\standard_trailers/medium_sled.pcx 290 100 09 20 26 -13 -10
  // Standard bulldozer side dump sled - gravel, loaded
  504 Y:\Documents\OTTD graphics\HEQS_build\Full HEQS\sprites\standard_trailers/medium_sled.pcx 34 100 01 24 12 -3 -10
  505 Y:\Documents\OTTD graphics\HEQS_build\Full HEQS\sprites\standard_trailers/medium_sled.pcx 66 100 09 20 26 -11 -9
  506 Y:\Documents\OTTD graphics\HEQS_build\Full HEQS\sprites\standard_trailers/medium_sled.pcx 98 100 01 16 36 -14 -6
  507 Y:\Documents\OTTD graphics\HEQS_build\Full HEQS\sprites\standard_trailers/medium_sled.pcx 146 100 09 20 26 -9 -7
  508 Y:\Documents\OTTD graphics\HEQS_build\Full HEQS\sprites\standard_trailers/medium_sled.pcx 178 100 01 24 12 -9 -16
  509 Y:\Documents\OTTD graphics\HEQS_build\Full HEQS\sprites\standard_trailers/medium_sled.pcx 210 100 09 20 26 -17 -7
  510 Y:\Documents\OTTD graphics\HEQS_build\Full HEQS\sprites\standard_trailers/medium_sled.pcx 242 100 01 16 36 -30 -8
  511 Y:\Documents\OTTD graphics\HEQS_build\Full HEQS\sprites\standard_trailers/medium_sled.pcx 290 100 09 20 26 -13 -10
  512 * 17	 02 01 28  03 03    00 00  01 00  02 00    00 00  01 00  02 00 // iron ore ?
  513 * 17	 02 01 21  03 03    00 00  03 00  04 00    00 00  03 00  04 00 // coal ?
  514 * 17	 02 01 26  03 03    00 00  05 00  06 00    00 00  05 00  06 00 // grain ?
  515 * 17	 02 01 2E  03 03    00 00  07 00  08 00    00 00  07 00  08 00 // brown ?
  516 * 17	 02 01 2C  03 03    00 00  09 00  0A 00    00 00  09 00  0A 00 // red ?
  517 * 17	 02 01 2D  03 03    00 00  0B 00  0C 00    00 00  0B 00  0C 00 // grey ?
  // Standard bulldozer flat trailer
  518 * 4	 01 01 09 08
  // Standard bulldozer flat trailer - empty
  519 Y:\Documents\OTTD graphics\HEQS_build\Full HEQS\sprites\standard_trailers/medium_trailer_4_wheel.pcx 34 730 01 24 12 -3 -10
  520 Y:\Documents\OTTD graphics\HEQS_build\Full HEQS\sprites\standard_trailers/medium_trailer_4_wheel.pcx 66 730 09 20 26 -11 -9
  521 Y:\Documents\OTTD graphics\HEQS_build\Full HEQS\sprites\standard_trailers/medium_trailer_4_wheel.pcx 98 730 01 16 36 -14 -6
  522 Y:\Documents\OTTD graphics\HEQS_build\Full HEQS\sprites\standard_trailers/medium_trailer_4_wheel.pcx 146 730 09 20 26 -9 -7
  523 Y:\Documents\OTTD graphics\HEQS_build\Full HEQS\sprites\standard_trailers/medium_trailer_4_wheel.pcx 178 730 01 24 12 -9 -16
  524 Y:\Documents\OTTD graphics\HEQS_build\Full HEQS\sprites\standard_trailers/medium_trailer_4_wheel.pcx 210 730 09 20 26 -17 -7
  525 Y:\Documents\OTTD graphics\HEQS_build\Full HEQS\sprites\standard_trailers/medium_trailer_4_wheel.pcx 242 730 01 16 36 -30 -8
  526 Y:\Documents\OTTD graphics\HEQS_build\Full HEQS\sprites\standard_trailers/medium_trailer_4_wheel.pcx 290 730 09 20 26 -13 -10
  // Standard bulldozer flat trailer - steel, loading  
  527 Y:\Documents\OTTD graphics\HEQS_build\Full HEQS\sprites\standard_trailers/medium_trailer_4_wheel.pcx 34 970 01 24 12 -3 -10
  528 Y:\Documents\OTTD graphics\HEQS_build\Full HEQS\sprites\standard_trailers/medium_trailer_4_wheel.pcx 66 970 09 20 26 -11 -9
  529 Y:\Documents\OTTD graphics\HEQS_build\Full HEQS\sprites\standard_trailers/medium_trailer_4_wheel.pcx 98 970 01 16 36 -14 -6
  530 Y:\Documents\OTTD graphics\HEQS_build\Full HEQS\sprites\standard_trailers/medium_trailer_4_wheel.pcx 146 970 09 20 26 -9 -7
  531 Y:\Documents\OTTD graphics\HEQS_build\Full HEQS\sprites\standard_trailers/medium_trailer_4_wheel.pcx 178 970 01 24 12 -9 -16
  532 Y:\Documents\OTTD graphics\HEQS_build\Full HEQS\sprites\standard_trailers/medium_trailer_4_wheel.pcx 210 970 09 20 26 -17 -7
  533 Y:\Documents\OTTD graphics\HEQS_build\Full HEQS\sprites\standard_trailers/medium_trailer_4_wheel.pcx 242 970 01 16 36 -30 -8
  534 Y:\Documents\OTTD graphics\HEQS_build\Full HEQS\sprites\standard_trailers/medium_trailer_4_wheel.pcx 290 970 09 20 26 -13 -10
  // Standard bulldozer flat trailer - steel, loaded  
  535 Y:\Documents\OTTD graphics\HEQS_build\Full HEQS\sprites\standard_trailers/medium_trailer_4_wheel.pcx 34 970 01 24 12 -3 -10
  536 Y:\Documents\OTTD graphics\HEQS_build\Full HEQS\sprites\standard_trailers/medium_trailer_4_wheel.pcx 66 970 09 20 26 -11 -9
  537 Y:\Documents\OTTD graphics\HEQS_build\Full HEQS\sprites\standard_trailers/medium_trailer_4_wheel.pcx 98 970 01 16 36 -14 -6
  538 Y:\Documents\OTTD graphics\HEQS_build\Full HEQS\sprites\standard_trailers/medium_trailer_4_wheel.pcx 146 970 09 20 26 -9 -7
  539 Y:\Documents\OTTD graphics\HEQS_build\Full HEQS\sprites\standard_trailers/medium_trailer_4_wheel.pcx 178 970 01 24 12 -9 -16
  540 Y:\Documents\OTTD graphics\HEQS_build\Full HEQS\sprites\standard_trailers/medium_trailer_4_wheel.pcx 210 970 09 20 26 -17 -7
  541 Y:\Documents\OTTD graphics\HEQS_build\Full HEQS\sprites\standard_trailers/medium_trailer_4_wheel.pcx 242 970 01 16 36 -30 -8
  542 Y:\Documents\OTTD graphics\HEQS_build\Full HEQS\sprites\standard_trailers/medium_trailer_4_wheel.pcx 290 970 09 20 26 -13 -10
  // Standard bulldozer flat trailer - paper, loading  
  543 Y:\Documents\OTTD graphics\HEQS_build\Full HEQS\sprites\standard_trailers/medium_trailer_4_wheel.pcx 34 1130 01 24 12 -3 -10
  544 Y:\Documents\OTTD graphics\HEQS_build\Full HEQS\sprites\standard_trailers/medium_trailer_4_wheel.pcx 66 1130 09 20 26 -11 -9
  545 Y:\Documents\OTTD graphics\HEQS_build\Full HEQS\sprites\standard_trailers/medium_trailer_4_wheel.pcx 98 1130 01 16 36 -14 -6
  546 Y:\Documents\OTTD graphics\HEQS_build\Full HEQS\sprites\standard_trailers/medium_trailer_4_wheel.pcx 146 1130 09 20 26 -9 -7
  547 Y:\Documents\OTTD graphics\HEQS_build\Full HEQS\sprites\standard_trailers/medium_trailer_4_wheel.pcx 178 1130 01 24 12 -9 -16
  548 Y:\Documents\OTTD graphics\HEQS_build\Full HEQS\sprites\standard_trailers/medium_trailer_4_wheel.pcx 210 1130 09 20 26 -17 -7
  549 Y:\Documents\OTTD graphics\HEQS_build\Full HEQS\sprites\standard_trailers/medium_trailer_4_wheel.pcx 242 1130 01 16 36 -30 -8
  550 Y:\Documents\OTTD graphics\HEQS_build\Full HEQS\sprites\standard_trailers/medium_trailer_4_wheel.pcx 290 1130 09 20 26 -13 -10
  // Standard bulldozer flat trailer - paper, loaded  
  551 Y:\Documents\OTTD graphics\HEQS_build\Full HEQS\sprites\standard_trailers/medium_trailer_4_wheel.pcx 34 1130 01 24 12 -3 -10
  552 Y:\Documents\OTTD graphics\HEQS_build\Full HEQS\sprites\standard_trailers/medium_trailer_4_wheel.pcx 66 1130 09 20 26 -11 -9
  553 Y:\Documents\OTTD graphics\HEQS_build\Full HEQS\sprites\standard_trailers/medium_trailer_4_wheel.pcx 98 1130 01 16 36 -14 -6
  554 Y:\Documents\OTTD graphics\HEQS_build\Full HEQS\sprites\standard_trailers/medium_trailer_4_wheel.pcx 146 1130 09 20 26 -9 -7
  555 Y:\Documents\OTTD graphics\HEQS_build\Full HEQS\sprites\standard_trailers/medium_trailer_4_wheel.pcx 178 1130 01 24 12 -9 -16
  556 Y:\Documents\OTTD graphics\HEQS_build\Full HEQS\sprites\standard_trailers/medium_trailer_4_wheel.pcx 210 1130 09 20 26 -17 -7
  557 Y:\Documents\OTTD graphics\HEQS_build\Full HEQS\sprites\standard_trailers/medium_trailer_4_wheel.pcx 242 1130 01 16 36 -30 -8
  558 Y:\Documents\OTTD graphics\HEQS_build\Full HEQS\sprites\standard_trailers/medium_trailer_4_wheel.pcx 290 1130 09 20 26 -13 -10
 // Standard bulldozer flat trailer - livestock, loading  
  559 Y:\Documents\OTTD graphics\HEQS_build\Full HEQS\sprites\standard_trailers/medium_trailer_4_wheel.pcx 34 810 01 24 12 -3 -10
  560 Y:\Documents\OTTD graphics\HEQS_build\Full HEQS\sprites\standard_trailers/medium_trailer_4_wheel.pcx 66 810 09 20 26 -11 -9
  561 Y:\Documents\OTTD graphics\HEQS_build\Full HEQS\sprites\standard_trailers/medium_trailer_4_wheel.pcx 98 810 01 16 36 -14 -6
  562 Y:\Documents\OTTD graphics\HEQS_build\Full HEQS\sprites\standard_trailers/medium_trailer_4_wheel.pcx 146 810 09 20 26 -9 -7
  563 Y:\Documents\OTTD graphics\HEQS_build\Full HEQS\sprites\standard_trailers/medium_trailer_4_wheel.pcx 178 810 01 24 12 -9 -16
  564 Y:\Documents\OTTD graphics\HEQS_build\Full HEQS\sprites\standard_trailers/medium_trailer_4_wheel.pcx 210 810 09 20 26 -17 -7
  565 Y:\Documents\OTTD graphics\HEQS_build\Full HEQS\sprites\standard_trailers/medium_trailer_4_wheel.pcx 242 810 01 16 36 -30 -8
  566 Y:\Documents\OTTD graphics\HEQS_build\Full HEQS\sprites\standard_trailers/medium_trailer_4_wheel.pcx 290 810 09 20 26 -13 -10
 // Standard bulldozer flat trailer - livestock, loaded
  567 Y:\Documents\OTTD graphics\HEQS_build\Full HEQS\sprites\standard_trailers/medium_trailer_4_wheel.pcx 34 810 01 24 12 -3 -10
  568 Y:\Documents\OTTD graphics\HEQS_build\Full HEQS\sprites\standard_trailers/medium_trailer_4_wheel.pcx 66 810 09 20 26 -11 -9
  569 Y:\Documents\OTTD graphics\HEQS_build\Full HEQS\sprites\standard_trailers/medium_trailer_4_wheel.pcx 98 810 01 16 36 -14 -6
  570 Y:\Documents\OTTD graphics\HEQS_build\Full HEQS\sprites\standard_trailers/medium_trailer_4_wheel.pcx 146 810 09 20 26 -9 -7
  571 Y:\Documents\OTTD graphics\HEQS_build\Full HEQS\sprites\standard_trailers/medium_trailer_4_wheel.pcx 178 810 01 24 12 -9 -16
  572 Y:\Documents\OTTD graphics\HEQS_build\Full HEQS\sprites\standard_trailers/medium_trailer_4_wheel.pcx 210 810 09 20 26 -17 -7
  573 Y:\Documents\OTTD graphics\HEQS_build\Full HEQS\sprites\standard_trailers/medium_trailer_4_wheel.pcx 242 810 01 16 36 -30 -8
  574 Y:\Documents\OTTD graphics\HEQS_build\Full HEQS\sprites\standard_trailers/medium_trailer_4_wheel.pcx 290 810 09 20 26 -13 -10
 // Standard bulldozer flat trailer - copper, loading  
  575 Y:\Documents\OTTD graphics\HEQS_build\Full HEQS\sprites\standard_trailers/medium_trailer_4_wheel.pcx 34 1050 01 24 12 -3 -10
  576 Y:\Documents\OTTD graphics\HEQS_build\Full HEQS\sprites\standard_trailers/medium_trailer_4_wheel.pcx 66 1050 09 20 26 -11 -9
[...]
 2198 Y:\Documents\OTTD graphics\HEQS_build\Full HEQS\sprites\mining_trucks/95t_mining_truck_red.pcx 290 10 09 20 26 -10 -11
  // Kilimanjaro 95t hauler grey 
 2199 Y:\Documents\OTTD graphics\HEQS_build\Full HEQS\sprites\mining_trucks/95t_mining_truck_grey.pcx 34 10 01 24 12 -5 -13
 2200 Y:\Documents\OTTD graphics\HEQS_build\Full HEQS\sprites\mining_trucks/95t_mining_truck_grey.pcx 66 10 09 20 26 -15 -8
 2201 Y:\Documents\OTTD graphics\HEQS_build\Full HEQS\sprites\mining_trucks/95t_mining_truck_grey.pcx 98 10 01 16 36 -18 -8
 2202 Y:\Documents\OTTD graphics\HEQS_build\Full HEQS\sprites\mining_trucks/95t_mining_truck_grey.pcx 146 10 09 20 26 -11 -9
 2203 Y:\Documents\OTTD graphics\HEQS_build\Full HEQS\sprites\mining_trucks/95t_mining_truck_grey.pcx 178 10 01 24 12 -5 -13
 2204 Y:\Documents\OTTD graphics\HEQS_build\Full HEQS\sprites\mining_trucks/95t_mining_truck_grey.pcx 210 10 09 20 26 -16 -9
 2205 Y:\Documents\OTTD graphics\HEQS_build\Full HEQS\sprites\mining_trucks/95t_mining_truck_grey.pcx 242 10 01 16 36 -20 -10
 2206 Y:\Documents\OTTD graphics\HEQS_build\Full HEQS\sprites\mining_trucks/95t_mining_truck_grey.pcx 290 10 09 20 26 -10 -11
 2207 * 13	 02 01 A1 02 02 00 00 01 00 00 00 01 00
 2208 * 13	 02 01 A2 02 02 00 00 02 00 00 00 02 00
 2209 * 13	 02 01 A3 02 02 00 00 03 00 00 00 03 00
 2210 * 13	 02 01 A4 02 02 00 00 04 00 00 00 04 00
 2211 * 13	 02 01 A5 02 02 00 00 05 00 00 00 05 00
 2212 * 13	 02 01 A6 02 02 00 00 06 00 00 00 06 00
 2213 * 4	 01 01 01 04 // depot sprites
 2214 * 1	 00
 2215 * 1	 00
 2216 Y:\Documents\OTTD graphics\HEQS_build\Full HEQS\sprites\mining_trucks/95t_mining_truck.pcx 370 14 01 12 36 -14 -6
 2217 * 1	 00
 2218 * 9	 02 01 AF 01 01 00 00 00 00
 2219 * 25	 03 01 01 1F 
   06 
   01 A1 00
   08 A2 00
   0E A3 00 
   11 A4 00
   17 A5 00
   FF AF 00 // buy menu sprites
   A6 00 // default sprites

  // Camelback Mountain Mining Truck  240t		2001-2050	37mph
//!!Fatal Error (47): Offset 67: Invalid property 20.
 2220 * 69	 00 01 1A 01 10
    00 \w1-1-1920  // intro date
    02 20     // reliability
    03 19     // vehicle life
    04 19     // class life
    06 0F     // climate
    07 05     // load amount
    08 \b118     // speed in mph * 3.2
    09 50     // running cost factor
    0A 48 4C 00 00 13 28 14 C8        // running cost base
    0E FF     // sprite ID
    0F 00     // capacity
    10 FF     // cargo type 
    11 5D     // cost factor
    12 19     // sound effect
    15 \b30     // speed in mph * 0.8
    16 40 00 00 28     // Bit mask of cargo types available for refitting
    // flips 1D / 1E values: excludes grain, wheat, maize
    17 12     // Callback flags bit mask
    1A 00     // Refit cost, using 25% of the purchase price cost base
    1B 00     // Retire vehicle early, this many years before the end of phase 2
    1C 02     // Miscellaneous vehicle flags
    1D 10 00          // Refittable cargo classes
    1E EF 03          // Non-refittable cargo classes
    1F 8D
    26 0B 00    // Long format introduction date
    20 23 // sort vehicle list
 2221 * 37	 04 01 7F 01 10 "Camelback Mountain Mining Truck" 00
 2222 * 62	 04 01 81 01 D4 D0 "Hauls: " 8A "Two 120t belly-dump trailers (240t total cargo)" 00
 2223 * 4	 01 01 01 08
  // Kilimanjaro (Articulated) dump truck empty
 2224 Y:\Documents\OTTD graphics\HEQS_build\Full HEQS\sprites\off_highway_trucks/mining_truck_chassis.pcx 34 10 01 24 12 -5 -16
 2225 Y:\Documents\OTTD graphics\HEQS_build\Full HEQS\sprites\off_highway_trucks/mining_truck_chassis.pcx 66 10 09 20 26 -15 -8
 2226 Y:\Documents\OTTD graphics\HEQS_build\Full HEQS\sprites\off_highway_trucks/mining_truck_chassis.pcx 98 10 01 16 36 -18 -10
 2227 Y:\Documents\OTTD graphics\HEQS_build\Full HEQS\sprites\off_highway_trucks/mining_truck_chassis.pcx 146 10 09 20 26 -11 -9
 2228 Y:\Documents\OTTD graphics\HEQS_build\Full HEQS\sprites\off_highway_trucks/mining_truck_chassis.pcx 178 10 01 24 12 -5 -15
 2229 Y:\Documents\OTTD graphics\HEQS_build\Full HEQS\sprites\off_highway_trucks/mining_truck_chassis.pcx 210 10 09 20 26 -16 -9
 2230 Y:\Documents\OTTD graphics\HEQS_build\Full HEQS\sprites\off_highway_trucks/mining_truck_chassis.pcx 242 10 01 16 36 -20 -10
 2231 Y:\Documents\OTTD graphics\HEQS_build\Full HEQS\sprites\off_highway_trucks/mining_truck_chassis.pcx 290 10 09 20 26 -10 -11
 2232 * 9	 02 01 A1 01 01 00 00 00 00 //normal action2 defining graphics with no loading/loaded stages
 2233 * 4	 01 01 01 04
 2234 * 1	 00
 2235 * 1	 00
 2236 Y:\Documents\OTTD graphics\HEQS_build\Full HEQS\sprites\off_highway_trucks/mining_truck_chassis.pcx 370 14 01 12 36 -14 -6
 2237 * 1	 00
 2238 * 9	 02 01 F1 // action2 buy menu sprites 
      01 // number loading states
      01 // number loaded states
      00 00 // loading sprites
      00 00 // loaded sprites
 2239 * 14	 02 01 F0 // varaction 2 handles buy menu callbacks 
                 81 0C 00 FF //check byte value of variable 81 (no bit shift, FF andmask)
                 01 // range
                   D4 80 23 23 // text for vehicle window
                 F1 00 //otherwise go to next action 2 ID 
 2240 * 22	 02 01 B0 //ID B0
               81 10 00 FF //check byte value of variable 10 (no bit shift, FF andmask)
               03 //check one ranges
               07 80 01 01 //give callback result
               04 80 02 02 //give callback result
               07 80 03 03 //give callback result
               FF FF //otherwise end the callback chain
 2241 * 18	 02 01 B1 //
               81 0C 00 FF // handle callbacks
               02 // range
                 02 80 11 11 // vehicle length CB
                 B0 00 16 16 // articulated vehicle building instructions
               A1 00 //otherwise go to ID A1 (ie. apply vehicle graphics)
 2242 * 10	 03   // Action 3
    01  // RV 
    01  // Number of vehicles this action associate graphics with 
    10  // Vehicle ID
    01  // Number of different cargo types to support 
    FF F0 00 // buy menu sprites
    B1 00   // Action 2 ID above  

  // Kilimanjaro Mining Hauler  200t	1200hp	1990-2050	57mph
//!!Fatal Error (47): Offset 67: Invalid property 20.
 2243 * 69	 00 01 1A 01 11
    00 \w1-1-1920  // intro date
    02 20     // reliability
    03 19     // vehicle life
    04 19     // class life
    06 0F     // climate
    07 05     // load amount
    08 \b182     // speed in mph * 3.2
    09 50     // running cost factor
    0A 48 4C 00 00 13 28 14 C8        // running cost base
    0E FF     // sprite ID
    0F \b200     // capacity
    10 FF     // cargo type 
    11 5D     // cost factor
    12 19     // sound effect
    15 \b46     // speed in mph * 0.8
    16 40 00 00 28     // Bit mask of cargo types available for refitting
    // flips 1D / 1E values: excludes grain, wheat, maize
    17 00     // Callback flags bit mask
    1A 00     // Refit cost, using 25% of the purchase price cost base
    1B 00     // Retire vehicle early, this many years before the end of phase 2
    1C 02     // Miscellaneous vehicle flags
    1D 10 00          // Refittable cargo classes
    1E EF 03          // Non-refittable cargo classes
    1F 2F 07 0B 00   // Long format introduction date
    20 23 // sort vehicle list
 2244 * 39	 04 01 7F 01 11 "Kilimanjaro Unitised Mining Truck" 00
 2245 * 4	 01 01 07 08
  // unitised hauler empty
 2246 Y:\Documents\OTTD graphics\HEQS_build\Full HEQS\sprites\mining_trucks/unitised_mining_truck.pcx 34 10 01 24 12 -5 -15
 2247 Y:\Documents\OTTD graphics\HEQS_build\Full HEQS\sprites\mining_trucks/unitised_mining_truck.pcx 66 10 01 22 30 -17 -10
 2248 Y:\Documents\OTTD graphics\HEQS_build\Full HEQS\sprites\mining_trucks/unitised_mining_truck.pcx 98 10 01 16 36 -14 -9
 2249 Y:\Documents\OTTD graphics\HEQS_build\Full HEQS\sprites\mining_trucks/unitised_mining_truck.pcx 146 10 01 22 30 -10 -10
 2250 Y:\Documents\OTTD graphics\HEQS_build\Full HEQS\sprites\mining_trucks/unitised_mining_truck.pcx 178 10 01 24 12 -5 -13
 2251 Y:\Documents\OTTD graphics\HEQS_build\Full HEQS\sprites\mining_trucks/unitised_mining_truck.pcx 210 10 01 22 30 -18 -11
 2252 Y:\Documents\OTTD graphics\HEQS_build\Full HEQS\sprites\mining_trucks/unitised_mining_truck.pcx 242 10 01 16 36 -14 -10
 2253 Y:\Documents\OTTD graphics\HEQS_build\Full HEQS\sprites\mining_trucks/unitised_mining_truck.pcx 290 10 01 22 30 -9 -11
  // unitised hauler coal
 2254 Y:\Documents\OTTD graphics\HEQS_build\Full HEQS\sprites\mining_trucks/unitised_mining_truck_coal.pcx 34 10 01 24 12 -5 -15
 2255 Y:\Documents\OTTD graphics\HEQS_build\Full HEQS\sprites\mining_trucks/unitised_mining_truck_coal.pcx 66 10 01 22 30 -17 -10
 2256 Y:\Documents\OTTD graphics\HEQS_build\Full HEQS\sprites\mining_trucks/unitised_mining_truck_coal.pcx 98 10 01 16 36 -14 -9
 2257 Y:\Documents\OTTD graphics\HEQS_build\Full HEQS\sprites\mining_trucks/unitised_mining_truck_coal.pcx 146 10 01 22 30 -10 -10
 2258 Y:\Documents\OTTD graphics\HEQS_build\Full HEQS\sprites\mining_trucks/unitised_mining_truck_coal.pcx 178 10 01 24 12 -5 -13
 2259 Y:\Documents\OTTD graphics\HEQS_build\Full HEQS\sprites\mining_trucks/unitised_mining_truck_coal.pcx 210 10 01 22 30 -18 -11
 2260 Y:\Documents\OTTD graphics\HEQS_build\Full HEQS\sprites\mining_trucks/unitised_mining_truck_coal.pcx 242 10 01 16 36 -14 -10
 2261 Y:\Documents\OTTD graphics\HEQS_build\Full HEQS\sprites\mining_trucks/unitised_mining_truck_coal.pcx 290 10 01 22 30 -9 -11
  // unitised hauler iron 
 2262 Y:\Documents\OTTD graphics\HEQS_build\Full HEQS\sprites\mining_trucks/unitised_mining_truck_iron.pcx 34 10 01 24 12 -5 -15
 2263 Y:\Documents\OTTD graphics\HEQS_build\Full HEQS\sprites\mining_trucks/unitised_mining_truck_iron.pcx 66 10 01 22 30 -17 -10
 2264 Y:\Documents\OTTD graphics\HEQS_build\Full HEQS\sprites\mining_trucks/unitised_mining_truck_iron.pcx 98 10 01 16 36 -14 -9
 2265 Y:\Documents\OTTD graphics\HEQS_build\Full HEQS\sprites\mining_trucks/unitised_mining_truck_iron.pcx 146 10 01 22 30 -10 -10
 2266 Y:\Documents\OTTD graphics\HEQS_build\Full HEQS\sprites\mining_trucks/unitised_mining_truck_iron.pcx 178 10 01 24 12 -5 -13
 2267 Y:\Documents\OTTD graphics\HEQS_build\Full HEQS\sprites\mining_trucks/unitised_mining_truck_iron.pcx 210 10 01 22 30 -18 -11
 2268 Y:\Documents\OTTD graphics\HEQS_build\Full HEQS\sprites\mining_trucks/unitised_mining_truck_iron.pcx 242 10 01 16 36 -14 -10
 2269 Y:\Documents\OTTD graphics\HEQS_build\Full HEQS\sprites\mining_trucks/unitised_mining_truck_iron.pcx 290 10 01 22 30 -9 -11
  // unitised hauler brown
 2270 Y:\Documents\OTTD graphics\HEQS_build\Full HEQS\sprites\mining_trucks/unitised_mining_truck_brown.pcx 34 10 01 24 12 -5 -15
 2271 Y:\Documents\OTTD graphics\HEQS_build\Full HEQS\sprites\mining_trucks/unitised_mining_truck_brown.pcx 66 10 01 22 30 -17 -10
 2272 Y:\Documents\OTTD graphics\HEQS_build\Full HEQS\sprites\mining_trucks/unitised_mining_truck_brown.pcx 98 10 01 16 36 -14 -9
 2273 Y:\Documents\OTTD graphics\HEQS_build\Full HEQS\sprites\mining_trucks/unitised_mining_truck_brown.pcx 146 10 01 22 30 -10 -10
 2274 Y:\Documents\OTTD graphics\HEQS_build\Full HEQS\sprites\mining_trucks/unitised_mining_truck_brown.pcx 178 10 01 24 12 -5 -13
 2275 Y:\Documents\OTTD graphics\HEQS_build\Full HEQS\sprites\mining_trucks/unitised_mining_truck_brown.pcx 210 10 01 22 30 -18 -11
 2276 Y:\Documents\OTTD graphics\HEQS_build\Full HEQS\sprites\mining_trucks/unitised_mining_truck_brown.pcx 242 10 01 16 36 -14 -10
 2277 Y:\Documents\OTTD graphics\HEQS_build\Full HEQS\sprites\mining_trucks/unitised_mining_truck_brown.pcx 290 10 01 22 30 -9 -11
  // unitised hauler white 
 2278 Y:\Documents\OTTD graphics\HEQS_build\Full HEQS\sprites\mining_trucks/unitised_mining_truck_white.pcx 34 10 01 24 12 -5 -15
 2279 Y:\Documents\OTTD graphics\HEQS_build\Full HEQS\sprites\mining_trucks/unitised_mining_truck_white.pcx 66 10 01 22 30 -17 -10
 2280 Y:\Documents\OTTD graphics\HEQS_build\Full HEQS\sprites\mining_trucks/unitised_mining_truck_white.pcx 98 10 01 16 36 -14 -9
 2281 Y:\Documents\OTTD graphics\HEQS_build\Full HEQS\sprites\mining_trucks/unitised_mining_truck_white.pcx 146 10 01 22 30 -10 -10
 2282 Y:\Documents\OTTD graphics\HEQS_build\Full HEQS\sprites\mining_trucks/unitised_mining_truck_white.pcx 178 10 01 24 12 -5 -13
 2283 Y:\Documents\OTTD graphics\HEQS_build\Full HEQS\sprites\mining_trucks/unitised_mining_truck_white.pcx 210 10 01 22 30 -18 -11
 2284 Y:\Documents\OTTD graphics\HEQS_build\Full HEQS\sprites\mining_trucks/unitised_mining_truck_white.pcx 242 10 01 16 36 -14 -10
 2285 Y:\Documents\OTTD graphics\HEQS_build\Full HEQS\sprites\mining_trucks/unitised_mining_truck_white.pcx 290 10 01 22 30 -9 -11
  // unitised hauler red
 2286 Y:\Documents\OTTD graphics\HEQS_build\Full HEQS\sprites\mining_trucks/unitised_mining_truck_red.pcx 34 10 01 24 12 -5 -15
 2287 Y:\Documents\OTTD graphics\HEQS_build\Full HEQS\sprites\mining_trucks/unitised_mining_truck_red.pcx 66 10 01 22 30 -17 -10
 2288 Y:\Documents\OTTD graphics\HEQS_build\Full HEQS\sprites\mining_trucks/unitised_mining_truck_red.pcx 98 10 01 16 36 -14 -9
 2289 Y:\Documents\OTTD graphics\HEQS_build\Full HEQS\sprites\mining_trucks/unitised_mining_truck_red.pcx 146 10 01 22 30 -10 -10
 2290 Y:\Documents\OTTD graphics\HEQS_build\Full HEQS\sprites\mining_trucks/unitised_mining_truck_red.pcx 178 10 01 24 12 -5 -13
 2291 Y:\Documents\OTTD graphics\HEQS_build\Full HEQS\sprites\mining_trucks/unitised_mining_truck_red.pcx 210 10 01 22 30 -18 -11
 2292 Y:\Documents\OTTD graphics\HEQS_build\Full HEQS\sprites\mining_trucks/unitised_mining_truck_red.pcx 242 10 01 16 36 -14 -10
 2293 Y:\Documents\OTTD graphics\HEQS_build\Full HEQS\sprites\mining_trucks/unitised_mining_truck_red.pcx 290 10 01 22 30 -9 -11
  // unitised hauler grey
 2294 Y:\Documents\OTTD graphics\HEQS_build\Full HEQS\sprites\mining_trucks/unitised_mining_truck_grey.pcx 34 10 01 24 12 -5 -15
 2295 Y:\Documents\OTTD graphics\HEQS_build\Full HEQS\sprites\mining_trucks/unitised_mining_truck_grey.pcx 66 10 01 22 30 -17 -10
 2296 Y:\Documents\OTTD graphics\HEQS_build\Full HEQS\sprites\mining_trucks/unitised_mining_truck_grey.pcx 98 10 01 16 36 -14 -9
 2297 Y:\Documents\OTTD graphics\HEQS_build\Full HEQS\sprites\mining_trucks/unitised_mining_truck_grey.pcx 146 10 01 22 30 -10 -10
 2298 Y:\Documents\OTTD graphics\HEQS_build\Full HEQS\sprites\mining_trucks/unitised_mining_truck_grey.pcx 178 10 01 24 12 -5 -13
 2299 Y:\Documents\OTTD graphics\HEQS_build\Full HEQS\sprites\mining_trucks/unitised_mining_truck_grey.pcx 210 10 01 22 30 -18 -11
 2300 Y:\Documents\OTTD graphics\HEQS_build\Full HEQS\sprites\mining_trucks/unitised_mining_truck_grey.pcx 242 10 01 16 36 -14 -10
 2301 Y:\Documents\OTTD graphics\HEQS_build\Full HEQS\sprites\mining_trucks/unitised_mining_truck_grey.pcx 290 10 01 22 30 -9 -11
 2302 * 13	 02 01 A1 02 02 00 00 01 00 00 00 01 00
 2303 * 13	 02 01 A2 02 02 00 00 02 00 00 00 02 00
 2304 * 13	 02 01 A3 02 02 00 00 03 00 00 00 03 00
 2305 * 13	 02 01 A4 02 02 00 00 04 00 00 00 04 00
 2306 * 13	 02 01 A5 02 02 00 00 05 00 00 00 05 00
 2307 * 13	 02 01 A6 02 02 00 00 06 00 00 00 06 00
 2308 * 4	 01 01 01 04
 2309 * 1	 00
 2310 * 1	 00
 2311 Y:\Documents\OTTD graphics\HEQS_build\Full HEQS\sprites\mining_trucks/unitised_mining_truck.pcx 370 14 01 12 36 -14 -6
 2312 * 1	 00
 2313 * 9	 02 01 AF 01 01 00 00 00 00
 2314 * 25	 03 01 01 11 
   06
   01 A1 00
   08 A2 00
   0E A3 00
   11 A4 00
   17 A5 00
   FF AF 00 // buy menu sprites
   A6 00 // default sprites
  // --------------------------- end of Dump trucks / Mining Haulers --------------------- //

  // --------------------------- Off-Highway Trucks --------------------- //

  // Cascade Off-Highway Truck  90t		1960-1982		30mph
 2315 * 67	 00 01 19 01 23
    00 \w1-1-1920  // intro date
    02 20     // reliability
    03 19     // vehicle life
    04 19     // class life
    06 00     // climate  !! set to 00 to hide this vehicle until finished
    07 05     // load amount
    08 \b96     // speed in mph * 3.2
    09 50     // running cost factor
    0A 48 4C 00 00 13 28 14 C8        // running cost base
    0E FF     // sprite ID
    0F 00     // capacity
    10 FF     // cargo type 
    11 5D     // cost factor
    12 19     // sound effect
    15 \b24     // speed in mph * 0.8
    16 40 00 00 28     // Bit mask of cargo types available for refitting
    // flips 1D / 1E values: excludes grain, wheat, maize
    17 16     // Callback flags bit mask
    1A 00     // Refit cost, using 25% of the purchase price cost base
    1B 00     // Retire vehicle early, this many years before the end of phase 2
    1C 02     // Miscellaneous vehicle flags
    1D 10 00          // Refittable cargo classes
    1E EF 03          // Non-refittable cargo classes
    1F 72 EC 0A 00    // Long format introduction date
 2316 * 31	 04 01 7F 01 23 "Cascade Off-Highway Truck" 00
 2317 * 4	 01 01 01 08
  // Cascade off-highway truck empty
 2318 Y:\Documents\OTTD graphics\HEQS_build\Full HEQS\sprites\off_highway_trucks/1960_truck_3_axle.pcx 34 10 01 24 12 -5 -18
 2319 Y:\Documents\OTTD graphics\HEQS_build\Full HEQS\sprites\off_highway_trucks/1960_truck_3_axle.pcx 66 10 09 20 26 -17 -8
 2320 Y:\Documents\OTTD graphics\HEQS_build\Full HEQS\sprites\off_highway_trucks/1960_truck_3_axle.pcx 98 10 01 16 36 -10 -10
 2321 Y:\Documents\OTTD graphics\HEQS_build\Full HEQS\sprites\off_highway_trucks/1960_truck_3_axle.pcx 146 10 09 20 26 -11 -9
 2322 Y:\Documents\OTTD graphics\HEQS_build\Full HEQS\sprites\off_highway_trucks/1960_truck_3_axle.pcx 178 10 01 24 12 -5 -16
 2323 Y:\Documents\OTTD graphics\HEQS_build\Full HEQS\sprites\off_highway_trucks/1960_truck_3_axle.pcx 210 10 09 20 26 -16 -9
 2324 Y:\Documents\OTTD graphics\HEQS_build\Full HEQS\sprites\off_highway_trucks/1960_truck_3_axle.pcx 242 10 01 16 36 -18 -10
 2325 Y:\Documents\OTTD graphics\HEQS_build\Full HEQS\sprites\off_highway_trucks/1960_truck_3_axle.pcx 290 10 09 20 26 -8 -11
 2326 * 9	 02 01 A1 01 01 00 00 00 00 //normal action2 defining graphics with no loading/loaded stages
 2327 * 4	 01 01 01 04
 2328 * 1	 00
 2329 * 1	 00
 2330 Y:\Documents\OTTD graphics\HEQS_build\Full HEQS\sprites\off_highway_trucks/1960_truck_3_axle.pcx 242 10 01 16 36 -18 -8
 2331 * 1	 00
 2332 * 14	 02 01 B0 //ID B0
               81 10 00 FF //check byte value of variable 10 (no bit shift, FF andmask)
               01 //check one ranges
               06 80 01 01 //give callback result
               FF FF //otherwise end the callback chain
 2333 * 14	 02 01 B1 //ID B1
               81 0C 00 FF //check byte value of variable 81 (no bit shift, FF andmask)
               01 //check one range
               B0 00 16 16 //go to ID B0 for value 16 (ie. go to the articulated vehicle building instructions)
               A1 00 //otherwise go to ID A1 (ie. apply vehicle graphics)
 2334 * 7	 03   // Action 3
    01  // RV 
    01  // Number of vehicles this action associate graphics with 
    23  // Vehicle ID
    00  // Number of different cargo types to support  
    B1 00   // Action 2 ID above  
// --------------------------- end of Off-Highway Trucks --------------------- //
//!!Warning (97): Set 00 defined by the previous Action 1 (sprite 2327) has not been used.
//!!For feature 1 the following cargoIDs have not been used since their most recent definition:
//!!0C (last defined at sprite 882)
//!!0D (last defined at sprite 883)
//!!0F (last defined at sprite 1071)
//!!11 (last defined at sprite 145)
//!!17 (last defined at sprite 144)
//!!18 (last defined at sprite 247)
//!!19 (last defined at sprite 248)
//!!2C (last defined at sprite 993)
//!!2D (last defined at sprite 994)
//!!2F (last defined at sprite 1148)
