// Automatically generated by GRFCODEC. Do not modify!
// (Info version 7)
// Format: spritenum pcxfile xpos ypos compression ysize xsize xrel yrel
    0 * 4	 B7 08 00 00
    1 * 147	 08 06 "AP" 12 01 "HEQS (Preview) v0.4" 00 "Heavy equipment "
	 "(Preview) v0.3 in dual company "
	 "colours. Brought to you by"
	 "andythenorth and Richard Wheeler (Zephyris)"
	 "2008" 00

    2 * 170	 00 08 01 29 00 09 // Cargo translation table
      "PASS" "COAL" "MAIL" "OIL_"     // 00 - 03, 01 - 08
      "LVST" "GOOD" "GRAI" "WOOD"     // 04 - 07, 10 - 80
      "IORE" "STEL" "VALU" "PAPR"     // 08 - 0B, 01^ - 08^
      "FOOD" "FRUT" "CORE" "WATR"     // 0C - 0F, 10^ - 80^
      "RUBR" "SUGR" "TOYS" "BATT"     // 10 - 13, 01^^ - 08^^
      "SWET" "TOFF" "COLA" "CTCD"     // 14 - 17, 10^^ - 80^^
      "BUBL" "PLST" "FZDR" "WHEA"     // 18 - 1B, 01^^^ - 08^^^
      "GOLD" "MAIZ" "TWOD" "DIAM"     // 1C - 1F, 10^^^ - 80^^^
      "___A" "___B" "___C" "___D"
      "___E" "___F" "___G" "___H"
      "___I"

    3 * 67	 00 01 19 01 01 
      00 00 00  // intro date
      02 20     // reliability
      03 19     // vehicle life
      04 23     // class life
      06 00     // climate
      07 05     // load amount
      08 E0     // speed in mph * 3.2
      09 08     // running cost factor
      0A 48 4C 00 00 13 00 14 28        // running cost base
      0E FF     // sprite ID
      0F 32     // capacity
      10 FF     // cargo type
      11 00     // cost factor
      12 00     // sound effect
      15 38     // speed in mph * 0.8
      16 00 00 00 00    // Bit mask of cargo types available for refitting
      17 16     // Callback flags bit mask
      1A 00     // Refit cost, using 25% of the purchase price cost base
      1B 00     // Retire vehicle early, this many years before the end of phase 2
      1C 02     // Miscellaneous vehicle flags     
      1D FF 03     // Refittable cargo classes 
      1E 01 00     // Non-refittable cargo classes
      1F 60 B3 0A 00   // Long format introduction date 

    4 * 67	 00 01 19 01 0A 00 00 00 02 20 03 11 04 23 06 0F 07 05 08 80 09 1E 0A 48 4C 00 00 13 14 14 18 0E
	 FF 0F 00 10 FF 11 34 12 17 15 20 16 00 00 00 00 17 16 1A 00 1B 00 1C 02 1D FF 03 1E 00 00 1F 60
	 B3 0A 00
    5 * 67	 00 01 19 01 0B 00 00 00 02 20 03 11 04 23 06 0F 07 05 08 80 09 1E 0A 48 4C 00 00 13 14 14 18 0E
	 FF 0F 00 10 FF 11 34 12 17 15 20 16 00 00 00 00 17 16 1A 00 1B 00 1C 02 1D FF 03 1E 00 00 1F 60
	 B3 0A 00
    6 * 67	 00 01 19 01 0C 00 00 00 02 20 03 11 04 23 06 0F 07 05 08 80 09 1E 0A 48 4C 00 00 13 14 14 18 0E
	 FF 0F 00 10 FF 11 34 12 17 15 20 16 00 00 00 00 17 16 1A 00 1B 00 1C 02 1D FF 03 1E 00 00 1F 60
	 B3 0A 00
    7 * 29	 04 01 7F 01 01 "[Generic Large Trailer]" 00


   // ----------- Drawbar for Trailers -------------//
   // Drawbar
    8 * 67	 00 01 19 01 04 // Action 0
      00 00 00  // intro date
      02 20     // reliability
      03 19     // vehicle life
      04 23     // class life
      06 00     // climate
      07 05     // load amount
      08 E0     // speed in mph * 3.2
      09 08     // running cost factor
      0A 48 4C 00 00 13 00 14 20 // running cost base
      0E FF     // sprite ID
      0F 00     // capacity
      10 FF     // cargo type
      11 00     // cost factor
      12 00     // sound effect
      15 38     // speed in mph * 0.8
      16 00 00 00 00    // Bit mask of cargo types available for refitting
      17 02     // Callback flags bit mask
      1A 00     // Refit cost, using 25% of the purchase price cost base
      1B 00     // Retire vehicle early, this many years before the end of phase 2
      1C 02     // Miscellaneous vehicle flags     
      1D FF 03     // Refittable cargo classes 
      1E 01 00     // Non-refittable cargo classes
      1F 60 B3 0A 00   // Long format introduction date     
    9 * 28	 04 01 7F 01 04 "[Drawbar for Trailers]" 00
   10 * 4	 01 01 01 08
   11 Y:\Documents\OTTD graphics\HEQS_build\Full HEQS\sprites/drawbar.pcx 34 10 01 24 12 -5 -16
   12 Y:\Documents\OTTD graphics\HEQS_build\Full HEQS\sprites/drawbar.pcx 66 10 09 20 26 -12 -11
   13 Y:\Documents\OTTD graphics\HEQS_build\Full HEQS\sprites/drawbar.pcx 98 10 01 16 36 -18 -8
   14 Y:\Documents\OTTD graphics\HEQS_build\Full HEQS\sprites/drawbar.pcx 146 10 09 20 26 -4 -5
   15 Y:\Documents\OTTD graphics\HEQS_build\Full HEQS\sprites/drawbar.pcx 178 10 01 24 12 -8 -8
   16 Y:\Documents\OTTD graphics\HEQS_build\Full HEQS\sprites/drawbar.pcx 210 10 09 20 26 -26 -4
   17 Y:\Documents\OTTD graphics\HEQS_build\Full HEQS\sprites/drawbar.pcx 242 10 01 16 36 -30 -9
   18 Y:\Documents\OTTD graphics\HEQS_build\Full HEQS\sprites/drawbar.pcx 290 10 09 20 26 -16 -15
   19 * 9	 02 01 BB   01 01   00 00    00 00
   20 * 14	 02 01 AA  // handle callbacks
                 81 0C 00 FF // check variable 0C
                 01 // range
                  05 80 11 11 // vehicle length callback
                 BB 00
   21 * 7	 03 01 01 04 // Action 3
      00  // Number of different cargo types to support  
      AA 00 // default cargo

   // ----------------- end trailer drawbar -------------------//


    // ------------ Medium Trailers ------------------ //

   // Medium Trailers

   22 * 67	 00 01 19 01 00
      00 00 00  // intro date
      02 20     // reliability
      03 19     // vehicle life
      04 23     // class life
      06 00     // climate
      07 05     // load amount
      08 E0     // speed in mph * 3.2
      09 08     // running cost factor
      0A 48 4C 00 00 13 00 14 20    // running cost base
      0E FF     // sprite ID
      0F 1E     // capacity
      10 06     // cargo type
      11 00     // cost factor
      12 00     // sound effect
      15 38     // speed in mph * 0.8
      16 00 00 00 00    // Bit mask of cargo types available for refitting
      17 30     // Callback flags bit mask
      1A 00     // Refit cost, using 25% of the purchase price cost base
      1B 00     // Retire vehicle early, this many years before the end of phase 2
      1C 02     // Miscellaneous vehicle flags 
      1D FF 03      // Refittable cargo classes
      1E 01 00      // Non-refittable cargo classes
      1F 60 B3 0A 00    // Long format introduction date     
   23 * 30	 04 01 7F 01 00 "[Generic Medium Trailer]" 00
// define additional text suffixes
   24 * 28	 04 00 81 02 00 D0
            		" (refit 1)" 00	// D000 = "1st class"
               	" (refit 2)" 00	// D001 = "2nd class"
   // Medium Goods Trailer
   25 * 4	 01 01 01 08
   26 Y:\Documents\OTTD graphics\HEQS_build\Full HEQS\sprites\standard_trailers/medium_trailer_tandem.pcx 34 570 01 24 12 -3 -10
   27 Y:\Documents\OTTD graphics\HEQS_build\Full HEQS\sprites\standard_trailers/medium_trailer_tandem.pcx 66 570 01 20 26 -11 -9
   28 Y:\Documents\OTTD graphics\HEQS_build\Full HEQS\sprites\standard_trailers/medium_trailer_tandem.pcx 98 570 01 16 36 -14 -6
   29 Y:\Documents\OTTD graphics\HEQS_build\Full HEQS\sprites\standard_trailers/medium_trailer_tandem.pcx 146 570 01 20 26 -9 -7
   30 Y:\Documents\OTTD graphics\HEQS_build\Full HEQS\sprites\standard_trailers/medium_trailer_tandem.pcx 178 570 01 24 12 -9 -16
   31 Y:\Documents\OTTD graphics\HEQS_build\Full HEQS\sprites\standard_trailers/medium_trailer_tandem.pcx 210 570 01 20 26 -17 -7
   32 Y:\Documents\OTTD graphics\HEQS_build\Full HEQS\sprites\standard_trailers/medium_trailer_tandem.pcx 242 570 01 16 36 -14 -6
   33 Y:\Documents\OTTD graphics\HEQS_build\Full HEQS\sprites\standard_trailers/medium_trailer_tandem.pcx 290 570 01 20 26 -13 -10
   34 * 9	 02 01 05   01 01   00 00    00 00
   // ???????
   35 * 4	 01 01 01 08
   36 Y:\Documents\OTTD graphics\HEQS_build\Full HEQS\sprites/heqs2.pcx 434 40 01 18 8 -3 -10
   37 Y:\Documents\OTTD graphics\HEQS_build\Full HEQS\sprites/heqs2.pcx 450 40 09 16 20 -14 -7
   38 Y:\Documents\OTTD graphics\HEQS_build\Full HEQS\sprites/heqs2.pcx 482 40 01 12 28 -14 -6
   39 Y:\Documents\OTTD graphics\HEQS_build\Full HEQS\sprites/heqs2.pcx 530 40 09 16 20 -6 -8
   40 Y:\Documents\OTTD graphics\HEQS_build\Full HEQS\sprites/heqs2.pcx 562 40 01 18 8 -3 -10
   41 Y:\Documents\OTTD graphics\HEQS_build\Full HEQS\sprites/heqs2.pcx 578 40 09 16 20 -14 -8
   42 Y:\Documents\OTTD graphics\HEQS_build\Full HEQS\sprites/heqs2.pcx 610 40 01 12 28 -14 -6
   43 Y:\Documents\OTTD graphics\HEQS_build\Full HEQS\sprites/heqs2.pcx 658 40 09 16 20 -6 -7
   44 * 9	 02 01 0A   01 01   00 00    00 00
   // Medium end dump trailer - empty
   45 * 4	 01 01 11 08
   46 Y:\Documents\OTTD graphics\HEQS_build\Full HEQS\sprites\standard_trailers/medium_trailer_tandem.pcx 34 50 01 24 12 -3 -10
   47 Y:\Documents\OTTD graphics\HEQS_build\Full HEQS\sprites\standard_trailers/medium_trailer_tandem.pcx 66 50 09 20 26 -11 -9
   48 Y:\Documents\OTTD graphics\HEQS_build\Full HEQS\sprites\standard_trailers/medium_trailer_tandem.pcx 98 50 01 16 36 -14 -6
   49 Y:\Documents\OTTD graphics\HEQS_build\Full HEQS\sprites\standard_trailers/medium_trailer_tandem.pcx 146 50 09 20 26 -9 -7
   50 Y:\Documents\OTTD graphics\HEQS_build\Full HEQS\sprites\standard_trailers/medium_trailer_tandem.pcx 178 50 01 24 12 -9 -16
   51 Y:\Documents\OTTD graphics\HEQS_build\Full HEQS\sprites\standard_trailers/medium_trailer_tandem.pcx 210 50 09 20 26 -17 -7
   52 Y:\Documents\OTTD graphics\HEQS_build\Full HEQS\sprites\standard_trailers/medium_trailer_tandem.pcx 242 50 01 16 36 -30 -8
   53 Y:\Documents\OTTD graphics\HEQS_build\Full HEQS\sprites\standard_trailers/medium_trailer_tandem.pcx 290 50 09 20 26 -13 -10
   // Medium end dump - iron ore, loading  !! this isn't iron ore??
   54 Y:\Documents\OTTD graphics\HEQS_build\Full HEQS\sprites\standard_trailers/medium_trailer_tandem.pcx 34 490 01 24 12 -3 -10
   55 Y:\Documents\OTTD graphics\HEQS_build\Full HEQS\sprites\standard_trailers/medium_trailer_tandem.pcx 66 490 09 20 20 -11 -9
   56 Y:\Documents\OTTD graphics\HEQS_build\Full HEQS\sprites\standard_trailers/medium_trailer_tandem.pcx 98 490 01 16 36 -14 -6
   57 Y:\Documents\OTTD graphics\HEQS_build\Full HEQS\sprites\standard_trailers/medium_trailer_tandem.pcx 146 490 09 20 26 -9 -7
   58 Y:\Documents\OTTD graphics\HEQS_build\Full HEQS\sprites\standard_trailers/medium_trailer_tandem.pcx 178 490 01 24 12 -9 -16
   59 Y:\Documents\OTTD graphics\HEQS_build\Full HEQS\sprites\standard_trailers/medium_trailer_tandem.pcx 210 490 09 20 26 -17 -7
   60 Y:\Documents\OTTD graphics\HEQS_build\Full HEQS\sprites\standard_trailers/medium_trailer_tandem.pcx 242 490 01 16 36 -30 -8
   61 Y:\Documents\OTTD graphics\HEQS_build\Full HEQS\sprites\standard_trailers/medium_trailer_tandem.pcx 290 490 09 20 26 -13 -10
   // Medium end dump - iron ore, loaded  !! this isn't iron ore??
   62 Y:\Documents\OTTD graphics\HEQS_build\Full HEQS\sprites\standard_trailers/medium_trailer_tandem.pcx 34 530 01 24 12 -3 -10
   63 Y:\Documents\OTTD graphics\HEQS_build\Full HEQS\sprites\standard_trailers/medium_trailer_tandem.pcx 66 530 09 20 20 -11 -9
   64 Y:\Documents\OTTD graphics\HEQS_build\Full HEQS\sprites\standard_trailers/medium_trailer_tandem.pcx 98 530 01 16 36 -14 -6
   65 Y:\Documents\OTTD graphics\HEQS_build\Full HEQS\sprites\standard_trailers/medium_trailer_tandem.pcx 146 530 09 20 26 -9 -7
   66 Y:\Documents\OTTD graphics\HEQS_build\Full HEQS\sprites\standard_trailers/medium_trailer_tandem.pcx 178 530 01 24 12 -9 -16
   67 Y:\Documents\OTTD graphics\HEQS_build\Full HEQS\sprites\standard_trailers/medium_trailer_tandem.pcx 210 530 09 20 26 -17 -7
   68 Y:\Documents\OTTD graphics\HEQS_build\Full HEQS\sprites\standard_trailers/medium_trailer_tandem.pcx 242 530 01 16 36 -30 -8
   69 Y:\Documents\OTTD graphics\HEQS_build\Full HEQS\sprites\standard_trailers/medium_trailer_tandem.pcx 290 530 09 20 26 -13 -10
   // Medium end dump - coal, loading
   70 Y:\Documents\OTTD graphics\HEQS_build\Full HEQS\sprites\standard_trailers/medium_trailer_tandem.pcx 34 170 01 24 12 -3 -10
   71 Y:\Documents\OTTD graphics\HEQS_build\Full HEQS\sprites\standard_trailers/medium_trailer_tandem.pcx 66 170 09 20 26 -11 -9
   72 Y:\Documents\OTTD graphics\HEQS_build\Full HEQS\sprites\standard_trailers/medium_trailer_tandem.pcx 98 170 01 16 36 -14 -6
   73 Y:\Documents\OTTD graphics\HEQS_build\Full HEQS\sprites\standard_trailers/medium_trailer_tandem.pcx 146 170 09 20 26 -9 -7
   74 Y:\Documents\OTTD graphics\HEQS_build\Full HEQS\sprites\standard_trailers/medium_trailer_tandem.pcx 178 170 01 24 12 -9 -16
   75 Y:\Documents\OTTD graphics\HEQS_build\Full HEQS\sprites\standard_trailers/medium_trailer_tandem.pcx 210 170 09 20 26 -17 -7
   76 Y:\Documents\OTTD graphics\HEQS_build\Full HEQS\sprites\standard_trailers/medium_trailer_tandem.pcx 242 170 01 16 36 -30 -8
   77 Y:\Documents\OTTD graphics\HEQS_build\Full HEQS\sprites\standard_trailers/medium_trailer_tandem.pcx 290 170 09 20 26 -13 -10
   // Medium end dump - coal, loaded
   78 Y:\Documents\OTTD graphics\HEQS_build\Full HEQS\sprites\standard_trailers/medium_trailer_tandem.pcx 34 210 01 24 12 -3 -10
   79 Y:\Documents\OTTD graphics\HEQS_build\Full HEQS\sprites\standard_trailers/medium_trailer_tandem.pcx 66 210 09 20 26 -11 -9
   80 Y:\Documents\OTTD graphics\HEQS_build\Full HEQS\sprites\standard_trailers/medium_trailer_tandem.pcx 98 210 01 16 36 -14 -6
   81 Y:\Documents\OTTD graphics\HEQS_build\Full HEQS\sprites\standard_trailers/medium_trailer_tandem.pcx 146 210 09 20 26 -9 -7
   82 Y:\Documents\OTTD graphics\HEQS_build\Full HEQS\sprites\standard_trailers/medium_trailer_tandem.pcx 178 210 01 24 12 -9 -16
   83 Y:\Documents\OTTD graphics\HEQS_build\Full HEQS\sprites\standard_trailers/medium_trailer_tandem.pcx 210 210 09 20 26 -17 -7
   84 Y:\Documents\OTTD graphics\HEQS_build\Full HEQS\sprites\standard_trailers/medium_trailer_tandem.pcx 242 210 01 16 36 -30 -8
   85 Y:\Documents\OTTD graphics\HEQS_build\Full HEQS\sprites\standard_trailers/medium_trailer_tandem.pcx 290 210 09 20 26 -13 -10
   // Medium end dump - grain, loading
   86 Y:\Documents\OTTD graphics\HEQS_build\Full HEQS\sprites\standard_trailers/medium_trailer_tandem.pcx 34 250 01 24 12 -3 -10
   87 Y:\Documents\OTTD graphics\HEQS_build\Full HEQS\sprites\standard_trailers/medium_trailer_tandem.pcx 66 250 09 20 26 -11 -9
   88 Y:\Documents\OTTD graphics\HEQS_build\Full HEQS\sprites\standard_trailers/medium_trailer_tandem.pcx 98 250 01 16 36 -14 -6
   89 Y:\Documents\OTTD graphics\HEQS_build\Full HEQS\sprites\standard_trailers/medium_trailer_tandem.pcx 146 250 09 20 26 -9 -7
   90 Y:\Documents\OTTD graphics\HEQS_build\Full HEQS\sprites\standard_trailers/medium_trailer_tandem.pcx 178 250 01 24 12 -9 -16
   91 Y:\Documents\OTTD graphics\HEQS_build\Full HEQS\sprites\standard_trailers/medium_trailer_tandem.pcx 210 250 09 20 26 -17 -7
   92 Y:\Documents\OTTD graphics\HEQS_build\Full HEQS\sprites\standard_trailers/medium_trailer_tandem.pcx 242 250 01 16 36 -30 -8
   93 Y:\Documents\OTTD graphics\HEQS_build\Full HEQS\sprites\standard_trailers/medium_trailer_tandem.pcx 250 250 09 20 26 -13 -10
  // Medium end dump - grain, loaded
   94 Y:\Documents\OTTD graphics\HEQS_build\Full HEQS\sprites\standard_trailers/medium_trailer_tandem.pcx 34 290 01 24 12 -3 -10
   95 Y:\Documents\OTTD graphics\HEQS_build\Full HEQS\sprites\standard_trailers/medium_trailer_tandem.pcx 66 290 09 20 26 -11 -9
   96 Y:\Documents\OTTD graphics\HEQS_build\Full HEQS\sprites\standard_trailers/medium_trailer_tandem.pcx 98 290 01 16 36 -14 -6
   97 Y:\Documents\OTTD graphics\HEQS_build\Full HEQS\sprites\standard_trailers/medium_trailer_tandem.pcx 146 290 09 20 26 -9 -7
   98 Y:\Documents\OTTD graphics\HEQS_build\Full HEQS\sprites\standard_trailers/medium_trailer_tandem.pcx 178 290 01 24 12 -9 -16
   99 Y:\Documents\OTTD graphics\HEQS_build\Full HEQS\sprites\standard_trailers/medium_trailer_tandem.pcx 210 290 09 20 26 -17 -7
  100 Y:\Documents\OTTD graphics\HEQS_build\Full HEQS\sprites\standard_trailers/medium_trailer_tandem.pcx 242 290 01 16 36 -30 -8
  101 Y:\Documents\OTTD graphics\HEQS_build\Full HEQS\sprites\standard_trailers/medium_trailer_tandem.pcx 290 290 09 20 26 -13 -10
  // Medium end dump - clay, loading
  102 Y:\Documents\OTTD graphics\HEQS_build\Full HEQS\sprites\standard_trailers/medium_trailer_tandem.pcx 34 410 01 24 12 -3 -10
  103 Y:\Documents\OTTD graphics\HEQS_build\Full HEQS\sprites\standard_trailers/medium_trailer_tandem.pcx 66 410 09 20 26 -11 -9
  104 Y:\Documents\OTTD graphics\HEQS_build\Full HEQS\sprites\standard_trailers/medium_trailer_tandem.pcx 98 410 01 16 36 -14 -6
  105 Y:\Documents\OTTD graphics\HEQS_build\Full HEQS\sprites\standard_trailers/medium_trailer_tandem.pcx 146 410 09 20 26 -9 -7
  106 Y:\Documents\OTTD graphics\HEQS_build\Full HEQS\sprites\standard_trailers/medium_trailer_tandem.pcx 178 410 01 24 12 -9 -16
  107 Y:\Documents\OTTD graphics\HEQS_build\Full HEQS\sprites\standard_trailers/medium_trailer_tandem.pcx 210 410 09 20 26 -17 -7
  108 Y:\Documents\OTTD graphics\HEQS_build\Full HEQS\sprites\standard_trailers/medium_trailer_tandem.pcx 242 410 01 16 36 -30 -8
  109 Y:\Documents\OTTD graphics\HEQS_build\Full HEQS\sprites\standard_trailers/medium_trailer_tandem.pcx 290 410 09 20 26 -13 -10
  // Medium end dump - clay, loaded
  110 Y:\Documents\OTTD graphics\HEQS_build\Full HEQS\sprites\standard_trailers/medium_trailer_tandem.pcx 34 450 01 24 12 -3 -10
  111 Y:\Documents\OTTD graphics\HEQS_build\Full HEQS\sprites\standard_trailers/medium_trailer_tandem.pcx 66 450 09 20 26 -11 -9
  112 Y:\Documents\OTTD graphics\HEQS_build\Full HEQS\sprites\standard_trailers/medium_trailer_tandem.pcx 98 450 01 16 36 -14 -6
  113 Y:\Documents\OTTD graphics\HEQS_build\Full HEQS\sprites\standard_trailers/medium_trailer_tandem.pcx 146 450 09 20 26 -9 -7
  114 Y:\Documents\OTTD graphics\HEQS_build\Full HEQS\sprites\standard_trailers/medium_trailer_tandem.pcx 178 450 01 24 12 -9 -16
  115 Y:\Documents\OTTD graphics\HEQS_build\Full HEQS\sprites\standard_trailers/medium_trailer_tandem.pcx 210 450 09 20 26 -17 -7
  116 Y:\Documents\OTTD graphics\HEQS_build\Full HEQS\sprites\standard_trailers/medium_trailer_tandem.pcx 242 450 01 16 36 -30 -8
  117 Y:\Documents\OTTD graphics\HEQS_build\Full HEQS\sprites\standard_trailers/medium_trailer_tandem.pcx 290 450 09 20 26 -13 -10
  // Medium end dump - copper ore, loading
  118 Y:\Documents\OTTD graphics\HEQS_build\Full HEQS\sprites\standard_trailers/medium_trailer_tandem.pcx 34 370 01 24 12 -3 -10
  119 Y:\Documents\OTTD graphics\HEQS_build\Full HEQS\sprites\standard_trailers/medium_trailer_tandem.pcx 66 370 09 20 26 -11 -9
  120 Y:\Documents\OTTD graphics\HEQS_build\Full HEQS\sprites\standard_trailers/medium_trailer_tandem.pcx 98 370 01 16 36 -14 -6
  121 Y:\Documents\OTTD graphics\HEQS_build\Full HEQS\sprites\standard_trailers/medium_trailer_tandem.pcx 146 370 09 20 26 -9 -7
  122 Y:\Documents\OTTD graphics\HEQS_build\Full HEQS\sprites\standard_trailers/medium_trailer_tandem.pcx 178 370 01 24 12 -9 -16
  123 Y:\Documents\OTTD graphics\HEQS_build\Full HEQS\sprites\standard_trailers/medium_trailer_tandem.pcx 210 370 09 20 26 -17 -7
  124 Y:\Documents\OTTD graphics\HEQS_build\Full HEQS\sprites\standard_trailers/medium_trailer_tandem.pcx 242 370 01 16 36 -30 -8
  125 Y:\Documents\OTTD graphics\HEQS_build\Full HEQS\sprites\standard_trailers/medium_trailer_tandem.pcx 290 370 09 20 26 -13 -10
  // Medium end dump - copper ore, loaded
  126 Y:\Documents\OTTD graphics\HEQS_build\Full HEQS\sprites\standard_trailers/medium_trailer_tandem.pcx 34 370 01 24 12 -3 -10
  127 Y:\Documents\OTTD graphics\HEQS_build\Full HEQS\sprites\standard_trailers/medium_trailer_tandem.pcx 66 370 09 20 26 -11 -9
  128 Y:\Documents\OTTD graphics\HEQS_build\Full HEQS\sprites\standard_trailers/medium_trailer_tandem.pcx 98 370 01 16 36 -14 -6
  129 Y:\Documents\OTTD graphics\HEQS_build\Full HEQS\sprites\standard_trailers/medium_trailer_tandem.pcx 146 370 09 20 26 -9 -7
  130 Y:\Documents\OTTD graphics\HEQS_build\Full HEQS\sprites\standard_trailers/medium_trailer_tandem.pcx 178 370 01 24 12 -9 -16
  131 Y:\Documents\OTTD graphics\HEQS_build\Full HEQS\sprites\standard_trailers/medium_trailer_tandem.pcx 210 370 09 20 26 -17 -7
  132 Y:\Documents\OTTD graphics\HEQS_build\Full HEQS\sprites\standard_trailers/medium_trailer_tandem.pcx 242 370 01 16 36 -30 -8
  133 Y:\Documents\OTTD graphics\HEQS_build\Full HEQS\sprites\standard_trailers/medium_trailer_tandem.pcx 290 370 09 20 26 -13 -10
  // Medium end dump - sugar, loading
  134 Y:\Documents\OTTD graphics\HEQS_build\Full HEQS\sprites\standard_trailers/medium_trailer_tandem.pcx 34 10 01 24 12 -3 -10
  135 Y:\Documents\OTTD graphics\HEQS_build\Full HEQS\sprites\standard_trailers/medium_trailer_tandem.pcx 66 10 09 20 26 -11 -9
  136 Y:\Documents\OTTD graphics\HEQS_build\Full HEQS\sprites\standard_trailers/medium_trailer_tandem.pcx 98 10 01 16 36 -14 -6
  137 Y:\Documents\OTTD graphics\HEQS_build\Full HEQS\sprites\standard_trailers/medium_trailer_tandem.pcx 146 10 09 20 26 -9 -7
  138 Y:\Documents\OTTD graphics\HEQS_build\Full HEQS\sprites\standard_trailers/medium_trailer_tandem.pcx 178 10 01 24 12 -9 -16
  139 Y:\Documents\OTTD graphics\HEQS_build\Full HEQS\sprites\standard_trailers/medium_trailer_tandem.pcx 210 10 09 20 26 -17 -7
  140 Y:\Documents\OTTD graphics\HEQS_build\Full HEQS\sprites\standard_trailers/medium_trailer_tandem.pcx 242 10 01 16 36 -30 -8
  141 Y:\Documents\OTTD graphics\HEQS_build\Full HEQS\sprites\standard_trailers/medium_trailer_tandem.pcx 290 10 09 20 26 -13 -10
  // Medium end dump - sugar, loaded
  142 Y:\Documents\OTTD graphics\HEQS_build\Full HEQS\sprites\standard_trailers/medium_trailer_tandem.pcx 34 10 01 24 12 -3 -10
  143 Y:\Documents\OTTD graphics\HEQS_build\Full HEQS\sprites\standard_trailers/medium_trailer_tandem.pcx 66 10 09 20 26 -11 -9
  144 Y:\Documents\OTTD graphics\HEQS_build\Full HEQS\sprites\standard_trailers/medium_trailer_tandem.pcx 98 10 01 16 36 -14 -6
  145 Y:\Documents\OTTD graphics\HEQS_build\Full HEQS\sprites\standard_trailers/medium_trailer_tandem.pcx 146 10 09 20 26 -9 -7
  146 Y:\Documents\OTTD graphics\HEQS_build\Full HEQS\sprites\standard_trailers/medium_trailer_tandem.pcx 178 10 01 24 12 -9 -16
  147 Y:\Documents\OTTD graphics\HEQS_build\Full HEQS\sprites\standard_trailers/medium_trailer_tandem.pcx 210 10 09 20 26 -17 -7
  148 Y:\Documents\OTTD graphics\HEQS_build\Full HEQS\sprites\standard_trailers/medium_trailer_tandem.pcx 242 10 01 16 36 -30 -8
  149 Y:\Documents\OTTD graphics\HEQS_build\Full HEQS\sprites\standard_trailers/medium_trailer_tandem.pcx 290 10 09 20 26 -13 -10
  // Medium end dump - gravel, loading
  150 Y:\Documents\OTTD graphics\HEQS_build\Full HEQS\sprites\standard_trailers/medium_trailer_tandem.pcx 34 100 01 24 12 -3 -10
  151 Y:\Documents\OTTD graphics\HEQS_build\Full HEQS\sprites\standard_trailers/medium_trailer_tandem.pcx 66 100 09 20 26 -11 -9
  152 Y:\Documents\OTTD graphics\HEQS_build\Full HEQS\sprites\standard_trailers/medium_trailer_tandem.pcx 98 100 01 16 36 -14 -6
  153 Y:\Documents\OTTD graphics\HEQS_build\Full HEQS\sprites\standard_trailers/medium_trailer_tandem.pcx 146 100 09 20 26 -9 -7
  154 Y:\Documents\OTTD graphics\HEQS_build\Full HEQS\sprites\standard_trailers/medium_trailer_tandem.pcx 178 100 01 24 12 -9 -16
  155 Y:\Documents\OTTD graphics\HEQS_build\Full HEQS\sprites\standard_trailers/medium_trailer_tandem.pcx 210 100 09 20 26 -17 -7
  156 Y:\Documents\OTTD graphics\HEQS_build\Full HEQS\sprites\standard_trailers/medium_trailer_tandem.pcx 242 100 01 16 36 -30 -8
  157 Y:\Documents\OTTD graphics\HEQS_build\Full HEQS\sprites\standard_trailers/medium_trailer_tandem.pcx 290 100 09 20 26 -13 -10
  // Medium end dump - gravel, loaded
  158 Y:\Documents\OTTD graphics\HEQS_build\Full HEQS\sprites\standard_trailers/medium_trailer_tandem.pcx 34 100 01 24 12 -3 -10
  159 Y:\Documents\OTTD graphics\HEQS_build\Full HEQS\sprites\standard_trailers/medium_trailer_tandem.pcx 66 100 09 20 26 -11 -9
  160 Y:\Documents\OTTD graphics\HEQS_build\Full HEQS\sprites\standard_trailers/medium_trailer_tandem.pcx 98 100 01 16 36 -14 -6
  161 Y:\Documents\OTTD graphics\HEQS_build\Full HEQS\sprites\standard_trailers/medium_trailer_tandem.pcx 146 100 09 20 26 -9 -7
  162 Y:\Documents\OTTD graphics\HEQS_build\Full HEQS\sprites\standard_trailers/medium_trailer_tandem.pcx 178 100 01 24 12 -9 -16
  163 Y:\Documents\OTTD graphics\HEQS_build\Full HEQS\sprites\standard_trailers/medium_trailer_tandem.pcx 210 100 09 20 26 -17 -7
  164 Y:\Documents\OTTD graphics\HEQS_build\Full HEQS\sprites\standard_trailers/medium_trailer_tandem.pcx 242 100 01 16 36 -30 -8
  165 Y:\Documents\OTTD graphics\HEQS_build\Full HEQS\sprites\standard_trailers/medium_trailer_tandem.pcx 290 100 09 20 26 -13 -10
  // Medium end dump - ??, loading
  166 Y:\Documents\OTTD graphics\HEQS_build\Full HEQS\sprites\standard_trailers/medium_trailer_tandem.pcx 34 10 01 24 12 -3 -10
  167 Y:\Documents\OTTD graphics\HEQS_build\Full HEQS\sprites\standard_trailers/medium_trailer_tandem.pcx 66 10 09 20 26 -11 -9
  168 Y:\Documents\OTTD graphics\HEQS_build\Full HEQS\sprites\standard_trailers/medium_trailer_tandem.pcx 98 10 01 16 36 -14 -6
  169 Y:\Documents\OTTD graphics\HEQS_build\Full HEQS\sprites\standard_trailers/medium_trailer_tandem.pcx 146 10 09 20 26 -9 -7
  170 Y:\Documents\OTTD graphics\HEQS_build\Full HEQS\sprites\standard_trailers/medium_trailer_tandem.pcx 178 10 01 24 12 -9 -16
  171 Y:\Documents\OTTD graphics\HEQS_build\Full HEQS\sprites\standard_trailers/medium_trailer_tandem.pcx 210 10 09 20 26 -17 -7
  172 Y:\Documents\OTTD graphics\HEQS_build\Full HEQS\sprites\standard_trailers/medium_trailer_tandem.pcx 242 10 01 16 36 -30 -8
  173 Y:\Documents\OTTD graphics\HEQS_build\Full HEQS\sprites\standard_trailers/medium_trailer_tandem.pcx 290 10 09 20 26 -13 -10
  // Medium end dump - ??, loaded
  174 Y:\Documents\OTTD graphics\HEQS_build\Full HEQS\sprites\standard_trailers/medium_trailer_tandem.pcx 34 10 01 24 12 -3 -10
  175 Y:\Documents\OTTD graphics\HEQS_build\Full HEQS\sprites\standard_trailers/medium_trailer_tandem.pcx 66 10 09 20 26 -11 -9
  176 Y:\Documents\OTTD graphics\HEQS_build\Full HEQS\sprites\standard_trailers/medium_trailer_tandem.pcx 98 10 01 16 36 -14 -6
  177 Y:\Documents\OTTD graphics\HEQS_build\Full HEQS\sprites\standard_trailers/medium_trailer_tandem.pcx 146 10 09 20 26 -9 -7
  178 Y:\Documents\OTTD graphics\HEQS_build\Full HEQS\sprites\standard_trailers/medium_trailer_tandem.pcx 178 10 01 24 12 -9 -16
  179 Y:\Documents\OTTD graphics\HEQS_build\Full HEQS\sprites\standard_trailers/medium_trailer_tandem.pcx 210 10 09 20 26 -17 -7
  180 Y:\Documents\OTTD graphics\HEQS_build\Full HEQS\sprites\standard_trailers/medium_trailer_tandem.pcx 242 10 01 16 36 -30 -8
  181 Y:\Documents\OTTD graphics\HEQS_build\Full HEQS\sprites\standard_trailers/medium_trailer_tandem.pcx 290 10 09 20 26 -13 -10
  182 * 17	 02 01 08  03 03    00 00  01 00  02 00    00 00  01 00  02 00
  183 * 17	 02 01 01  03 03    00 00  03 00  04 00    00 00  03 00  04 00
  184 * 17	 02 01 06  03 03    00 00  05 00  06 00    00 00  05 00  06 00
  185 * 17	 02 01 0E  03 03    00 00  07 00  08 00    00 00  07 00  08 00
  186 * 17	 02 01 17  03 03    00 00  09 00  0A 00    00 00  09 00  0A 00
  187 * 17	 02 01 11  03 03    00 00  0B 00  0C 00    00 00  0B 00  0C 00
  188 * 17	 02 01 FF  03 03    00 00  0D 00  0E 00    00 00  0D 00  0E 00
  189 * 17	 02 01 15  03 03    00 00  0F 00  10 00    00 00  0F 00  10 00
  // Medium flat trailer / (also stake trailer ??)
  190 * 4	 01 01 12 08
  // Medium flat trailer - empty
  191 Y:\Documents\OTTD graphics\HEQS_build\Full HEQS\sprites\standard_trailers/medium_trailer_tandem.pcx 34 730 01 24 12 -3 -10
  192 Y:\Documents\OTTD graphics\HEQS_build\Full HEQS\sprites\standard_trailers/medium_trailer_tandem.pcx 66 730 09 20 26 -11 -9
  193 Y:\Documents\OTTD graphics\HEQS_build\Full HEQS\sprites\standard_trailers/medium_trailer_tandem.pcx 98 730 01 16 36 -14 -6
  194 Y:\Documents\OTTD graphics\HEQS_build\Full HEQS\sprites\standard_trailers/medium_trailer_tandem.pcx 146 730 09 20 26 -9 -7
  195 Y:\Documents\OTTD graphics\HEQS_build\Full HEQS\sprites\standard_trailers/medium_trailer_tandem.pcx 178 730 01 24 12 -9 -16
  196 Y:\Documents\OTTD graphics\HEQS_build\Full HEQS\sprites\standard_trailers/medium_trailer_tandem.pcx 210 730 09 20 26 -17 -7
  197 Y:\Documents\OTTD graphics\HEQS_build\Full HEQS\sprites\standard_trailers/medium_trailer_tandem.pcx 242 730 01 16 36 -30 -8
  198 Y:\Documents\OTTD graphics\HEQS_build\Full HEQS\sprites\standard_trailers/medium_trailer_tandem.pcx 290 730 09 20 26 -13 -10
  // Medium flat trailer - steel, loading  
  199 Y:\Documents\OTTD graphics\HEQS_build\Full HEQS\sprites\standard_trailers/medium_trailer_tandem.pcx 34 970 01 24 12 -3 -10
  200 Y:\Documents\OTTD graphics\HEQS_build\Full HEQS\sprites\standard_trailers/medium_trailer_tandem.pcx 66 970 09 20 26 -11 -9
  201 Y:\Documents\OTTD graphics\HEQS_build\Full HEQS\sprites\standard_trailers/medium_trailer_tandem.pcx 98 970 01 16 36 -14 -6
  202 Y:\Documents\OTTD graphics\HEQS_build\Full HEQS\sprites\standard_trailers/medium_trailer_tandem.pcx 146 970 09 20 26 -9 -7
  203 Y:\Documents\OTTD graphics\HEQS_build\Full HEQS\sprites\standard_trailers/medium_trailer_tandem.pcx 178 970 01 24 12 -9 -16
  204 Y:\Documents\OTTD graphics\HEQS_build\Full HEQS\sprites\standard_trailers/medium_trailer_tandem.pcx 210 970 09 20 26 -17 -7
  205 Y:\Documents\OTTD graphics\HEQS_build\Full HEQS\sprites\standard_trailers/medium_trailer_tandem.pcx 242 970 01 16 36 -30 -8
  206 Y:\Documents\OTTD graphics\HEQS_build\Full HEQS\sprites\standard_trailers/medium_trailer_tandem.pcx 290 970 09 20 26 -13 -10
  // Medium flat trailer - steel, loaded  
  207 Y:\Documents\OTTD graphics\HEQS_build\Full HEQS\sprites\standard_trailers/medium_trailer_tandem.pcx 34 970 01 24 12 -3 -10
  208 Y:\Documents\OTTD graphics\HEQS_build\Full HEQS\sprites\standard_trailers/medium_trailer_tandem.pcx 66 970 09 20 26 -11 -9
  209 Y:\Documents\OTTD graphics\HEQS_build\Full HEQS\sprites\standard_trailers/medium_trailer_tandem.pcx 98 970 01 16 36 -14 -6
  210 Y:\Documents\OTTD graphics\HEQS_build\Full HEQS\sprites\standard_trailers/medium_trailer_tandem.pcx 146 970 09 20 26 -9 -7
  211 Y:\Documents\OTTD graphics\HEQS_build\Full HEQS\sprites\standard_trailers/medium_trailer_tandem.pcx 178 970 01 24 12 -9 -16
  212 Y:\Documents\OTTD graphics\HEQS_build\Full HEQS\sprites\standard_trailers/medium_trailer_tandem.pcx 210 970 09 20 26 -17 -7
  213 Y:\Documents\OTTD graphics\HEQS_build\Full HEQS\sprites\standard_trailers/medium_trailer_tandem.pcx 242 970 01 16 36 -30 -8
  214 Y:\Documents\OTTD graphics\HEQS_build\Full HEQS\sprites\standard_trailers/medium_trailer_tandem.pcx 290 970 09 20 26 -13 -10
  // Medium flat trailer - paper, loading  
  215 Y:\Documents\OTTD graphics\HEQS_build\Full HEQS\sprites\standard_trailers/medium_trailer_tandem.pcx 34 1130 01 24 12 -3 -10
  216 Y:\Documents\OTTD graphics\HEQS_build\Full HEQS\sprites\standard_trailers/medium_trailer_tandem.pcx 66 1130 09 20 26 -11 -9
  217 Y:\Documents\OTTD graphics\HEQS_build\Full HEQS\sprites\standard_trailers/medium_trailer_tandem.pcx 98 1130 01 16 36 -14 -6
  218 Y:\Documents\OTTD graphics\HEQS_build\Full HEQS\sprites\standard_trailers/medium_trailer_tandem.pcx 146 1130 09 20 26 -9 -7
  219 Y:\Documents\OTTD graphics\HEQS_build\Full HEQS\sprites\standard_trailers/medium_trailer_tandem.pcx 178 1130 01 24 12 -9 -16
  220 Y:\Documents\OTTD graphics\HEQS_build\Full HEQS\sprites\standard_trailers/medium_trailer_tandem.pcx 210 1130 09 20 26 -17 -7
  221 Y:\Documents\OTTD graphics\HEQS_build\Full HEQS\sprites\standard_trailers/medium_trailer_tandem.pcx 242 1130 01 16 36 -30 -8
  222 Y:\Documents\OTTD graphics\HEQS_build\Full HEQS\sprites\standard_trailers/medium_trailer_tandem.pcx 290 1130 09 20 26 -13 -10
  // Medium flat trailer - paper, loaded  
  223 Y:\Documents\OTTD graphics\HEQS_build\Full HEQS\sprites\standard_trailers/medium_trailer_tandem.pcx 34 1130 01 24 12 -3 -10
  224 Y:\Documents\OTTD graphics\HEQS_build\Full HEQS\sprites\standard_trailers/medium_trailer_tandem.pcx 66 1130 09 20 26 -11 -9
  225 Y:\Documents\OTTD graphics\HEQS_build\Full HEQS\sprites\standard_trailers/medium_trailer_tandem.pcx 98 1130 01 16 36 -14 -6
  226 Y:\Documents\OTTD graphics\HEQS_build\Full HEQS\sprites\standard_trailers/medium_trailer_tandem.pcx 146 1130 09 20 26 -9 -7
  227 Y:\Documents\OTTD graphics\HEQS_build\Full HEQS\sprites\standard_trailers/medium_trailer_tandem.pcx 178 1130 01 24 12 -9 -16
  228 Y:\Documents\OTTD graphics\HEQS_build\Full HEQS\sprites\standard_trailers/medium_trailer_tandem.pcx 210 1130 09 20 26 -17 -7
  229 Y:\Documents\OTTD graphics\HEQS_build\Full HEQS\sprites\standard_trailers/medium_trailer_tandem.pcx 242 1130 01 16 36 -30 -8
  230 Y:\Documents\OTTD graphics\HEQS_build\Full HEQS\sprites\standard_trailers/medium_trailer_tandem.pcx 290 1130 09 20 26 -13 -10
  // Medium stake trailer - empty
  231 Y:\Documents\OTTD graphics\HEQS_build\Full HEQS\sprites\standard_trailers/medium_trailer_tandem.pcx 34 610 01 24 12 -3 -10
  232 Y:\Documents\OTTD graphics\HEQS_build\Full HEQS\sprites\standard_trailers/medium_trailer_tandem.pcx 66 610 09 20 26 -11 -9
  233 Y:\Documents\OTTD graphics\HEQS_build\Full HEQS\sprites\standard_trailers/medium_trailer_tandem.pcx 98 610 01 16 36 -14 -6
  234 Y:\Documents\OTTD graphics\HEQS_build\Full HEQS\sprites\standard_trailers/medium_trailer_tandem.pcx 146 610 09 20 26 -9 -7
  235 Y:\Documents\OTTD graphics\HEQS_build\Full HEQS\sprites\standard_trailers/medium_trailer_tandem.pcx 178 610 01 24 12 -9 -16
  236 Y:\Documents\OTTD graphics\HEQS_build\Full HEQS\sprites\standard_trailers/medium_trailer_tandem.pcx 210 610 09 20 26 -17 -7
  237 Y:\Documents\OTTD graphics\HEQS_build\Full HEQS\sprites\standard_trailers/medium_trailer_tandem.pcx 242 610 01 16 36 -30 -8
  238 Y:\Documents\OTTD graphics\HEQS_build\Full HEQS\sprites\standard_trailers/medium_trailer_tandem.pcx 290 610 09 20 26 -13 -10
  // Medium stake trailer - wood, loading  
  239 Y:\Documents\OTTD graphics\HEQS_build\Full HEQS\sprites\standard_trailers/medium_trailer_tandem.pcx 34 650 01 24 12 -3 -10
  240 Y:\Documents\OTTD graphics\HEQS_build\Full HEQS\sprites\standard_trailers/medium_trailer_tandem.pcx 66 650 09 20 26 -11 -9
  241 Y:\Documents\OTTD graphics\HEQS_build\Full HEQS\sprites\standard_trailers/medium_trailer_tandem.pcx 98 650 01 16 36 -14 -6
  242 Y:\Documents\OTTD graphics\HEQS_build\Full HEQS\sprites\standard_trailers/medium_trailer_tandem.pcx 146 650 09 20 26 -9 -7
  243 Y:\Documents\OTTD graphics\HEQS_build\Full HEQS\sprites\standard_trailers/medium_trailer_tandem.pcx 178 650 01 24 12 -9 -16
  244 Y:\Documents\OTTD graphics\HEQS_build\Full HEQS\sprites\standard_trailers/medium_trailer_tandem.pcx 210 650 09 20 26 -17 -7
  245 Y:\Documents\OTTD graphics\HEQS_build\Full HEQS\sprites\standard_trailers/medium_trailer_tandem.pcx 242 650 01 16 36 -30 -8
  246 Y:\Documents\OTTD graphics\HEQS_build\Full HEQS\sprites\standard_trailers/medium_trailer_tandem.pcx 290 650 09 20 26 -13 -10
  // Medium stake trailer - wood, loaded  
  247 Y:\Documents\OTTD graphics\HEQS_build\Full HEQS\sprites\standard_trailers/medium_trailer_tandem.pcx 34 690 01 24 12 -3 -10
  248 Y:\Documents\OTTD graphics\HEQS_build\Full HEQS\sprites\standard_trailers/medium_trailer_tandem.pcx 66 690 09 20 26 -11 -9
  249 Y:\Documents\OTTD graphics\HEQS_build\Full HEQS\sprites\standard_trailers/medium_trailer_tandem.pcx 98 690 01 16 36 -14 -6
  250 Y:\Documents\OTTD graphics\HEQS_build\Full HEQS\sprites\standard_trailers/medium_trailer_tandem.pcx 146 690 09 20 26 -9 -7
  251 Y:\Documents\OTTD graphics\HEQS_build\Full HEQS\sprites\standard_trailers/medium_trailer_tandem.pcx 178 690 01 24 12 -9 -16
  252 Y:\Documents\OTTD graphics\HEQS_build\Full HEQS\sprites\standard_trailers/medium_trailer_tandem.pcx 210 690 09 20 26 -17 -7
  253 Y:\Documents\OTTD graphics\HEQS_build\Full HEQS\sprites\standard_trailers/medium_trailer_tandem.pcx 242 690 01 16 36 -30 -8
  254 Y:\Documents\OTTD graphics\HEQS_build\Full HEQS\sprites\standard_trailers/medium_trailer_tandem.pcx 290 690 09 20 26 -13 -10
 // Medium flat trailer - livestock, loading  
  255 Y:\Documents\OTTD graphics\HEQS_build\Full HEQS\sprites\standard_trailers/medium_trailer_tandem.pcx 34 810 01 24 12 -3 -10
  256 Y:\Documents\OTTD graphics\HEQS_build\Full HEQS\sprites\standard_trailers/medium_trailer_tandem.pcx 66 810 09 20 26 -11 -9
  257 Y:\Documents\OTTD graphics\HEQS_build\Full HEQS\sprites\standard_trailers/medium_trailer_tandem.pcx 98 810 01 16 36 -14 -6
  258 Y:\Documents\OTTD graphics\HEQS_build\Full HEQS\sprites\standard_trailers/medium_trailer_tandem.pcx 146 810 09 20 26 -9 -7
  259 Y:\Documents\OTTD graphics\HEQS_build\Full HEQS\sprites\standard_trailers/medium_trailer_tandem.pcx 178 810 01 24 12 -9 -16
  260 Y:\Documents\OTTD graphics\HEQS_build\Full HEQS\sprites\standard_trailers/medium_trailer_tandem.pcx 210 810 09 20 26 -17 -7
  261 Y:\Documents\OTTD graphics\HEQS_build\Full HEQS\sprites\standard_trailers/medium_trailer_tandem.pcx 242 810 01 16 36 -30 -8
  262 Y:\Documents\OTTD graphics\HEQS_build\Full HEQS\sprites\standard_trailers/medium_trailer_tandem.pcx 290 810 09 20 26 -13 -10
 // Medium flat trailer - livestock, loaded
  263 Y:\Documents\OTTD graphics\HEQS_build\Full HEQS\sprites\standard_trailers/medium_trailer_tandem.pcx 34 810 01 24 12 -3 -10
  264 Y:\Documents\OTTD graphics\HEQS_build\Full HEQS\sprites\standard_trailers/medium_trailer_tandem.pcx 66 810 09 20 26 -11 -9
  265 Y:\Documents\OTTD graphics\HEQS_build\Full HEQS\sprites\standard_trailers/medium_trailer_tandem.pcx 98 810 01 16 36 -14 -6
  266 Y:\Documents\OTTD graphics\HEQS_build\Full HEQS\sprites\standard_trailers/medium_trailer_tandem.pcx 146 810 09 20 26 -9 -7
  267 Y:\Documents\OTTD graphics\HEQS_build\Full HEQS\sprites\standard_trailers/medium_trailer_tandem.pcx 178 810 01 24 12 -9 -16
  268 Y:\Documents\OTTD graphics\HEQS_build\Full HEQS\sprites\standard_trailers/medium_trailer_tandem.pcx 210 810 09 20 26 -17 -7
  269 Y:\Documents\OTTD graphics\HEQS_build\Full HEQS\sprites\standard_trailers/medium_trailer_tandem.pcx 242 810 01 16 36 -30 -8
  270 Y:\Documents\OTTD graphics\HEQS_build\Full HEQS\sprites\standard_trailers/medium_trailer_tandem.pcx 290 810 09 20 26 -13 -10
 // Medium flat trailer - ??, loading  
  271 Y:\Documents\OTTD graphics\HEQS_build\Full HEQS\sprites\standard_trailers/medium_trailer_tandem.pcx 34 10 01 24 12 -3 -10
  272 Y:\Documents\OTTD graphics\HEQS_build\Full HEQS\sprites\standard_trailers/medium_trailer_tandem.pcx 66 10 09 20 26 -11 -9
  273 Y:\Documents\OTTD graphics\HEQS_build\Full HEQS\sprites\standard_trailers/medium_trailer_tandem.pcx 98 10 01 16 36 -14 -6
  274 Y:\Documents\OTTD graphics\HEQS_build\Full HEQS\sprites\standard_trailers/medium_trailer_tandem.pcx 146 10 09 20 26 -9 -7
  275 Y:\Documents\OTTD graphics\HEQS_build\Full HEQS\sprites\standard_trailers/medium_trailer_tandem.pcx 178 10 01 24 12 -9 -16
  276 Y:\Documents\OTTD graphics\HEQS_build\Full HEQS\sprites\standard_trailers/medium_trailer_tandem.pcx 210 10 09 20 26 -17 -7
  277 Y:\Documents\OTTD graphics\HEQS_build\Full HEQS\sprites\standard_trailers/medium_trailer_tandem.pcx 242 10 01 16 36 -30 -8
  278 Y:\Documents\OTTD graphics\HEQS_build\Full HEQS\sprites\standard_trailers/medium_trailer_tandem.pcx 290 10 09 20 26 -13 -10
 // Medium flat trailer - ??, loaded  
  279 Y:\Documents\OTTD graphics\HEQS_build\Full HEQS\sprites\standard_trailers/medium_trailer_tandem.pcx 34 10 01 24 12 -3 -10
  280 Y:\Documents\OTTD graphics\HEQS_build\Full HEQS\sprites\standard_trailers/medium_trailer_tandem.pcx 66 10 09 20 26 -11 -9
  281 Y:\Documents\OTTD graphics\HEQS_build\Full HEQS\sprites\standard_trailers/medium_trailer_tandem.pcx 98 10 01 16 36 -14 -6
  282 Y:\Documents\OTTD graphics\HEQS_build\Full HEQS\sprites\standard_trailers/medium_trailer_tandem.pcx 146 10 09 20 26 -9 -7
  283 Y:\Documents\OTTD graphics\HEQS_build\Full HEQS\sprites\standard_trailers/medium_trailer_tandem.pcx 178 10 01 24 12 -9 -16
  284 Y:\Documents\OTTD graphics\HEQS_build\Full HEQS\sprites\standard_trailers/medium_trailer_tandem.pcx 210 10 09 20 26 -17 -7
  285 Y:\Documents\OTTD graphics\HEQS_build\Full HEQS\sprites\standard_trailers/medium_trailer_tandem.pcx 242 10 01 16 36 -30 -8
  286 Y:\Documents\OTTD graphics\HEQS_build\Full HEQS\sprites\standard_trailers/medium_trailer_tandem.pcx 290 10 09 20 26 -13 -10
 // Medium flat trailer(s) - various toyland crap  
 // REMOVE these real sprites & corresponding action 2s
  287 Y:\Documents\OTTD graphics\HEQS_build\Full HEQS\sprites/heqs2.pcx 338 360 01 18 8 -3 -10
  288 Y:\Documents\OTTD graphics\HEQS_build\Full HEQS\sprites/heqs2.pcx 354 360 09 16 20 -14 -7
  289 Y:\Documents\OTTD graphics\HEQS_build\Full HEQS\sprites/heqs2.pcx 386 360 01 12 28 -14 -6
  290 Y:\Documents\OTTD graphics\HEQS_build\Full HEQS\sprites/heqs2.pcx 434 360 09 16 20 -6 -8
  291 Y:\Documents\OTTD graphics\HEQS_build\Full HEQS\sprites/heqs2.pcx 466 360 01 18 8 -3 -10
  292 Y:\Documents\OTTD graphics\HEQS_build\Full HEQS\sprites/heqs2.pcx 482 360 09 16 20 -14 -8
  293 Y:\Documents\OTTD graphics\HEQS_build\Full HEQS\sprites/heqs2.pcx 514 360 01 12 28 -14 -6
  294 Y:\Documents\OTTD graphics\HEQS_build\Full HEQS\sprites/heqs2.pcx 562 360 09 16 20 -6 -7
  295 Y:\Documents\OTTD graphics\HEQS_build\Full HEQS\sprites/heqs2.pcx 594 360 01 18 8 -3 -10
  296 Y:\Documents\OTTD graphics\HEQS_build\Full HEQS\sprites/heqs2.pcx 610 360 09 16 20 -14 -7
  297 Y:\Documents\OTTD graphics\HEQS_build\Full HEQS\sprites/heqs2.pcx 642 360 01 12 28 -14 -6
  298 Y:\Documents\OTTD graphics\HEQS_build\Full HEQS\sprites/heqs2.pcx 690 360 09 16 20 -6 -8
  299 Y:\Documents\OTTD graphics\HEQS_build\Full HEQS\sprites/heqs2.pcx 722 360 01 18 8 -3 -10
  300 Y:\Documents\OTTD graphics\HEQS_build\Full HEQS\sprites/heqs2.pcx 738 360 09 16 20 -14 -8
  301 Y:\Documents\OTTD graphics\HEQS_build\Full HEQS\sprites/heqs2.pcx 2 392 01 12 28 -14 -6
  302 Y:\Documents\OTTD graphics\HEQS_build\Full HEQS\sprites/heqs2.pcx 50 392 09 16 20 -6 -7
  303 Y:\Documents\OTTD graphics\HEQS_build\Full HEQS\sprites/heqs2.pcx 82 392 01 18 8 -3 -10
  304 Y:\Documents\OTTD graphics\HEQS_build\Full HEQS\sprites/heqs2.pcx 98 392 09 16 20 -14 -7
  305 Y:\Documents\OTTD graphics\HEQS_build\Full HEQS\sprites/heqs2.pcx 130 392 01 12 28 -14 -6
  306 Y:\Documents\OTTD graphics\HEQS_build\Full HEQS\sprites/heqs2.pcx 178 392 09 16 20 -6 -8
  307 Y:\Documents\OTTD graphics\HEQS_build\Full HEQS\sprites/heqs2.pcx 210 392 01 18 8 -3 -10
  308 Y:\Documents\OTTD graphics\HEQS_build\Full HEQS\sprites/heqs2.pcx 226 392 09 16 20 -14 -8
  309 Y:\Documents\OTTD graphics\HEQS_build\Full HEQS\sprites/heqs2.pcx 258 392 01 12 28 -14 -6
  310 Y:\Documents\OTTD graphics\HEQS_build\Full HEQS\sprites/heqs2.pcx 306 392 09 16 20 -6 -7
  311 Y:\Documents\OTTD graphics\HEQS_build\Full HEQS\sprites/heqs2.pcx 338 392 01 18 8 -3 -10
  312 Y:\Documents\OTTD graphics\HEQS_build\Full HEQS\sprites/heqs2.pcx 354 392 09 16 20 -14 -7
  313 Y:\Documents\OTTD graphics\HEQS_build\Full HEQS\sprites/heqs2.pcx 386 392 01 12 28 -14 -6
  314 Y:\Documents\OTTD graphics\HEQS_build\Full HEQS\sprites/heqs2.pcx 434 392 09 16 20 -6 -8
  315 Y:\Documents\OTTD graphics\HEQS_build\Full HEQS\sprites/heqs2.pcx 466 392 01 18 8 -3 -10
  316 Y:\Documents\OTTD graphics\HEQS_build\Full HEQS\sprites/heqs2.pcx 482 392 09 16 20 -14 -8
  317 Y:\Documents\OTTD graphics\HEQS_build\Full HEQS\sprites/heqs2.pcx 514 392 01 12 28 -14 -6
  318 Y:\Documents\OTTD graphics\HEQS_build\Full HEQS\sprites/heqs2.pcx 562 392 09 16 20 -6 -7
  319 Y:\Documents\OTTD graphics\HEQS_build\Full HEQS\sprites/heqs2.pcx 594 392 01 18 8 -3 -10
  320 Y:\Documents\OTTD graphics\HEQS_build\Full HEQS\sprites/heqs2.pcx 610 392 09 16 20 -14 -7
  321 Y:\Documents\OTTD graphics\HEQS_build\Full HEQS\sprites/heqs2.pcx 642 392 01 12 28 -14 -6
  322 Y:\Documents\OTTD graphics\HEQS_build\Full HEQS\sprites/heqs2.pcx 690 392 09 16 20 -6 -8
  323 Y:\Documents\OTTD graphics\HEQS_build\Full HEQS\sprites/heqs2.pcx 722 392 01 18 8 -3 -10
  324 Y:\Documents\OTTD graphics\HEQS_build\Full HEQS\sprites/heqs2.pcx 738 392 09 16 20 -14 -8
  325 Y:\Documents\OTTD graphics\HEQS_build\Full HEQS\sprites/heqs2.pcx 2 424 01 12 28 -14 -6
  326 Y:\Documents\OTTD graphics\HEQS_build\Full HEQS\sprites/heqs2.pcx 50 424 09 16 20 -6 -7
  327 Y:\Documents\OTTD graphics\HEQS_build\Full HEQS\sprites/heqs2.pcx 82 424 01 18 8 -3 -10
  328 Y:\Documents\OTTD graphics\HEQS_build\Full HEQS\sprites/heqs2.pcx 98 424 09 16 20 -14 -7
  329 Y:\Documents\OTTD graphics\HEQS_build\Full HEQS\sprites/heqs2.pcx 130 424 01 12 28 -14 -6
  330 Y:\Documents\OTTD graphics\HEQS_build\Full HEQS\sprites/heqs2.pcx 178 424 09 16 20 -6 -8
  331 Y:\Documents\OTTD graphics\HEQS_build\Full HEQS\sprites/heqs2.pcx 210 424 01 18 8 -3 -10
  332 Y:\Documents\OTTD graphics\HEQS_build\Full HEQS\sprites/heqs2.pcx 226 424 09 16 20 -14 -8
  333 Y:\Documents\OTTD graphics\HEQS_build\Full HEQS\sprites/heqs2.pcx 258 424 01 12 28 -14 -6
  334 Y:\Documents\OTTD graphics\HEQS_build\Full HEQS\sprites/heqs2.pcx 306 424 09 16 20 -6 -7
  335 * 17	 02 01 09  03 03   00 00  01 00  02 00    00 00  01 00  02 00
  336 * 17	 02 01 0B  03 03   00 00  03 00  04 00    00 00  03 00  04 00
  337 * 17	 02 01 07  03 03   05 00  06 00  07 00    05 00  06 00  07 00
  338 * 17	 02 01 04  03 03   00 00  07 00  08 00    00 00  07 00  08 00
  339 * 17	 02 01 18  03 03   00 00  09 00  0A 00    00 00  09 00  0A 00
  340 * 17	 02 01 1A  03 03   00 00  0B 00  0C 00    00 00  0B 00  0C 00
//!!Warning (94): Redefining ID FF not used since previous definition at sprite 188.
  341 * 17	 02 01 FF  03 03   00 00  0D 00  0E 00    00 00  0D 00  0E 00
  342 * 17	 02 01 13  03 03   00 00  0F 00  10 00    00 00  0F 00  10 00
  // Medium tank trailer
//!!Warning (97): Set 11 defined by the previous Action 1 (sprite 190) has not been used.
  343 * 4	 01 01 01 08
  344 Y:\Documents\OTTD graphics\HEQS_build\Full HEQS\sprites\standard_trailers/medium_trailer_tandem.pcx 34 10 01 24 12 -3 -10
  345 Y:\Documents\OTTD graphics\HEQS_build\Full HEQS\sprites\standard_trailers/medium_trailer_tandem.pcx 66 10 09 20 26 -11 -9
  346 Y:\Documents\OTTD graphics\HEQS_build\Full HEQS\sprites\standard_trailers/medium_trailer_tandem.pcx 98 10 01 16 36 -14 -6
  347 Y:\Documents\OTTD graphics\HEQS_build\Full HEQS\sprites\standard_trailers/medium_trailer_tandem.pcx 146 10 09 20 26 -9 -7
  348 Y:\Documents\OTTD graphics\HEQS_build\Full HEQS\sprites\standard_trailers/medium_trailer_tandem.pcx 178 10 01 24 12 -9 -16
  349 Y:\Documents\OTTD graphics\HEQS_build\Full HEQS\sprites\standard_trailers/medium_trailer_tandem.pcx 210 10 09 20 26 -17 -7
  350 Y:\Documents\OTTD graphics\HEQS_build\Full HEQS\sprites\standard_trailers/medium_trailer_tandem.pcx 242 10 01 16 36 -30 -8
  351 Y:\Documents\OTTD graphics\HEQS_build\Full HEQS\sprites\standard_trailers/medium_trailer_tandem.pcx 290 10 09 20 26 -13 -10
  352 * 9	 02 01 03   01 01    00 00    00 00
  353 * 4	 01 01 01 08
  354 Y:\Documents\OTTD graphics\HEQS_build\Full HEQS\sprites/heqs2.pcx 770 424 01 18 8 -3 -10
  355 Y:\Documents\OTTD graphics\HEQS_build\Full HEQS\sprites/heqs2.pcx 2 456 09 16 20 -14 -7
  356 Y:\Documents\OTTD graphics\HEQS_build\Full HEQS\sprites/heqs2.pcx 34 456 01 12 28 -14 -6
  357 Y:\Documents\OTTD graphics\HEQS_build\Full HEQS\sprites/heqs2.pcx 82 456 09 16 20 -6 -8
  358 Y:\Documents\OTTD graphics\HEQS_build\Full HEQS\sprites/heqs2.pcx 114 456 01 18 8 -3 -10
  359 Y:\Documents\OTTD graphics\HEQS_build\Full HEQS\sprites/heqs2.pcx 130 456 09 16 20 -14 -8
  360 Y:\Documents\OTTD graphics\HEQS_build\Full HEQS\sprites/heqs2.pcx 162 456 01 12 28 -14 -6
  361 Y:\Documents\OTTD graphics\HEQS_build\Full HEQS\sprites/heqs2.pcx 210 456 09 16 20 -6 -7
  362 * 9	 02 01 0C   01 01    00 00    00 00
  363 * 18	 02 01 AC  // text suffixes
                 81 F2 00 FF //
                 02 // range
                  00 80 00 00 // 
                  01 80 01 01 //  
                 FF 80
  364 * 18	 02 01 AB  // choose sprites according to refit
                 81 F2 00 FF //
                 02 // range
                  01 00 00 00 // 
                  09 00 01 01 // 
                 05 00 // default 
  365 * 18	 02 01 AA  // handle callbacks
                 81 0C 00 FF //
                 02 // range
                  04 80 11 11 // vehicle length CB
                  AC 00 19 19 // text suffix CB 
                 AB 00 // graphics
//!!Error (62): Offset 6: ID 00 has not been defined.
//!!Warning (100): Default ID appears earlier in sprite.
  366 * 103	 03 01 01 00 // Action 3
    20 // Number of different cargo types to support 
    00 00 00 // passengers
    01 01 00 // coal
    02 05 00 // mail
    03 03 00 // oil
    04 04 00 // livestock
    05 05 00 // goods
    06 06 00 // grain 
    07 07 00 // wood
    08 08 00 // iron ore
	  09 09 00 // steel
	  0A 0A 00 // valuables
	  0B 0B 00 // paper
	  0C 0C 00 // food
	  0D 0C 00 // fruit
	  0E 0E 00 // copper ore
	  0F 03 00 // water
	  10 03 00 // rubber
	  1B 06 00 // wheat
	  1C 0A 00 // gold
	  1D 06 00 // maize
	  1E 07 00 // tropical wood
	  1F 0A 00 // diamonds
	  AA 00 // default

   // ------------ end of Medium Trailers ------------------ //

  // -------------- Bulldozer Trailers --------------- //

  // Bulldozer trailer standard
  367 * 67	 00 01 19 01 08
      00 00 00  // intro date
      02 20     // reliability
      03 19     // vehicle life
      04 \b100     // class life
      06 00     // climate
      07 05     // load amount
      08 E0     // speed in mph * 3.2
      09 08     // running cost factor
      0A 48 4C 00 00 13 00 14 20    // running cost base
      0E FF     // sprite ID
      0F \b12     // capacity
      10 FF     // cargo type
      11 00     // cost factor
      12 00     // sound effect
      15 38     // speed in mph * 0.8
      16 00 00 00 00    // Bit mask of cargo types available for refitting
      17 16     // Callback flags bit mask
      1A 00     // Refit cost, using 25% of the purchase price cost base
      1B 00     // Retire vehicle early, this many years before the end of phase 2
      1C 02     // Miscellaneous vehicle flags 
      1D FF 03      // Refittable cargo classes
      1E 01 00      // Non-refittable cargo classes
      1F 60 B3 0A 00    // Long format introduction date     
  368 * 42	 04 01 7F 01 08 "[Generic Bulldozer Trailer Standard]" 00
   // Bulldozer trailer standard Goods Trailer
  369 * 4	 01 01 01 08
  370 Y:\Documents\OTTD graphics\HEQS_build\Full HEQS\sprites\bulldozer_trailers\standard/box_trailer_med.pcx 34 15 01 24 12 -3 -10
  371 Y:\Documents\OTTD graphics\HEQS_build\Full HEQS\sprites\bulldozer_trailers\standard/box_trailer_med.pcx 66 15 01 20 26 -11 -9
  372 Y:\Documents\OTTD graphics\HEQS_build\Full HEQS\sprites\bulldozer_trailers\standard/box_trailer_med.pcx 98 15 01 16 36 -14 -6
  373 Y:\Documents\OTTD graphics\HEQS_build\Full HEQS\sprites\bulldozer_trailers\standard/box_trailer_med.pcx 146 15 01 20 26 -9 -7
  374 Y:\Documents\OTTD graphics\HEQS_build\Full HEQS\sprites\bulldozer_trailers\standard/box_trailer_med.pcx 178 15 01 24 12 -9 -16
  375 Y:\Documents\OTTD graphics\HEQS_build\Full HEQS\sprites\bulldozer_trailers\standard/box_trailer_med.pcx 210 15 01 20 26 -17 -7
  376 Y:\Documents\OTTD graphics\HEQS_build\Full HEQS\sprites\bulldozer_trailers\standard/box_trailer_med.pcx 242 15 01 16 36 -14 -6
  377 Y:\Documents\OTTD graphics\HEQS_build\Full HEQS\sprites\bulldozer_trailers\standard/box_trailer_med.pcx 290 15 01 20 26 -13 -10
  378 * 9	 02 01 05 01 01 00 00 00 00
   // ???????
  379 * 4	 01 01 01 08
  380 Y:\Documents\OTTD graphics\HEQS_build\Full HEQS\sprites/heqs2.pcx 434 40 01 18 8 -3 -10
  381 Y:\Documents\OTTD graphics\HEQS_build\Full HEQS\sprites/heqs2.pcx 450 40 09 16 20 -14 -7
  382 Y:\Documents\OTTD graphics\HEQS_build\Full HEQS\sprites/heqs2.pcx 482 40 01 12 28 -14 -6
  383 Y:\Documents\OTTD graphics\HEQS_build\Full HEQS\sprites/heqs2.pcx 530 40 09 16 20 -6 -8
  384 Y:\Documents\OTTD graphics\HEQS_build\Full HEQS\sprites/heqs2.pcx 562 40 01 18 8 -3 -10
  385 Y:\Documents\OTTD graphics\HEQS_build\Full HEQS\sprites/heqs2.pcx 578 40 09 16 20 -14 -8
  386 Y:\Documents\OTTD graphics\HEQS_build\Full HEQS\sprites/heqs2.pcx 610 40 01 12 28 -14 -6
  387 Y:\Documents\OTTD graphics\HEQS_build\Full HEQS\sprites/heqs2.pcx 658 40 09 16 20 -6 -7
  388 * 9	 02 01 0A 01 01 00 00 00 00
   // Bulldozer trailer standard belly dump - empty
  389 * 4	 01 01 11 08
  390 Y:\Documents\OTTD graphics\HEQS_build\Full HEQS\sprites\bulldozer_trailers\standard/end_dump_trailer_med.pcx 34 15 01 24 12 -3 -10
  391 Y:\Documents\OTTD graphics\HEQS_build\Full HEQS\sprites\bulldozer_trailers\standard/end_dump_trailer_med.pcx 66 15 09 20 26 -11 -9
  392 Y:\Documents\OTTD graphics\HEQS_build\Full HEQS\sprites\bulldozer_trailers\standard/end_dump_trailer_med.pcx 98 15 01 16 36 -14 -6
  393 Y:\Documents\OTTD graphics\HEQS_build\Full HEQS\sprites\bulldozer_trailers\standard/end_dump_trailer_med.pcx 146 15 09 20 26 -9 -7
  394 Y:\Documents\OTTD graphics\HEQS_build\Full HEQS\sprites\bulldozer_trailers\standard/end_dump_trailer_med.pcx 178 15 01 24 12 -9 -16
  395 Y:\Documents\OTTD graphics\HEQS_build\Full HEQS\sprites\bulldozer_trailers\standard/end_dump_trailer_med.pcx 210 15 09 20 26 -17 -7
  396 Y:\Documents\OTTD graphics\HEQS_build\Full HEQS\sprites\bulldozer_trailers\standard/end_dump_trailer_med.pcx 242 15 01 16 36 -30 -8
  397 Y:\Documents\OTTD graphics\HEQS_build\Full HEQS\sprites\bulldozer_trailers\standard/end_dump_trailer_med.pcx 290 15 09 20 26 -13 -10
   // Bulldozer trailer standard belly dump - iron ore, loading  !! this isn't iron ore??
  398 Y:\Documents\OTTD graphics\HEQS_build\Full HEQS\sprites\bulldozer_trailers\standard/end_dump_trailer_med_iron.pcx 34 15 01 24 12 -3 -10
  399 Y:\Documents\OTTD graphics\HEQS_build\Full HEQS\sprites\bulldozer_trailers\standard/end_dump_trailer_med_iron.pcx 66 15 09 20 20 -11 -9
  400 Y:\Documents\OTTD graphics\HEQS_build\Full HEQS\sprites\bulldozer_trailers\standard/end_dump_trailer_med_iron.pcx 98 15 01 16 36 -14 -6
  401 Y:\Documents\OTTD graphics\HEQS_build\Full HEQS\sprites\bulldozer_trailers\standard/end_dump_trailer_med_iron.pcx 146 15 09 20 26 -9 -7
  402 Y:\Documents\OTTD graphics\HEQS_build\Full HEQS\sprites\bulldozer_trailers\standard/end_dump_trailer_med_iron.pcx 178 15 01 24 12 -9 -16
  403 Y:\Documents\OTTD graphics\HEQS_build\Full HEQS\sprites\bulldozer_trailers\standard/end_dump_trailer_med_iron.pcx 210 15 09 20 26 -17 -7
  404 Y:\Documents\OTTD graphics\HEQS_build\Full HEQS\sprites\bulldozer_trailers\standard/end_dump_trailer_med_iron.pcx 242 15 01 16 36 -30 -8
  405 Y:\Documents\OTTD graphics\HEQS_build\Full HEQS\sprites\bulldozer_trailers\standard/end_dump_trailer_med_iron.pcx 290 15 09 20 26 -13 -10
   // Bulldozer trailer standard belly dump - iron ore, loaded  !! this isn't iron ore??
  406 Y:\Documents\OTTD graphics\HEQS_build\Full HEQS\sprites\bulldozer_trailers\standard/end_dump_trailer_med_iron.pcx 34 15 01 24 12 -3 -10
  407 Y:\Documents\OTTD graphics\HEQS_build\Full HEQS\sprites\bulldozer_trailers\standard/end_dump_trailer_med_iron.pcx 66 15 09 20 20 -11 -9
  408 Y:\Documents\OTTD graphics\HEQS_build\Full HEQS\sprites\bulldozer_trailers\standard/end_dump_trailer_med_iron.pcx 98 15 01 16 36 -14 -6
  409 Y:\Documents\OTTD graphics\HEQS_build\Full HEQS\sprites\bulldozer_trailers\standard/end_dump_trailer_med_iron.pcx 146 15 09 20 26 -9 -7
  410 Y:\Documents\OTTD graphics\HEQS_build\Full HEQS\sprites\bulldozer_trailers\standard/end_dump_trailer_med_iron.pcx 178 15 01 24 12 -9 -16
  411 Y:\Documents\OTTD graphics\HEQS_build\Full HEQS\sprites\bulldozer_trailers\standard/end_dump_trailer_med_iron.pcx 210 15 09 20 26 -17 -7
  412 Y:\Documents\OTTD graphics\HEQS_build\Full HEQS\sprites\bulldozer_trailers\standard/end_dump_trailer_med_iron.pcx 242 15 01 16 36 -30 -8
  413 Y:\Documents\OTTD graphics\HEQS_build\Full HEQS\sprites\bulldozer_trailers\standard/end_dump_trailer_med_iron.pcx 290 15 09 20 26 -13 -10
   // Bulldozer trailer standard belly dump - coal, loading
  414 Y:\Documents\OTTD graphics\HEQS_build\Full HEQS\sprites\bulldozer_trailers\standard/end_dump_trailer_med_coal.pcx 34 15 01 24 12 -3 -10
  415 Y:\Documents\OTTD graphics\HEQS_build\Full HEQS\sprites\bulldozer_trailers\standard/end_dump_trailer_med_coal.pcx 66 15 09 20 26 -11 -9
  416 Y:\Documents\OTTD graphics\HEQS_build\Full HEQS\sprites\bulldozer_trailers\standard/end_dump_trailer_med_coal.pcx 98 15 01 16 36 -14 -6
  417 Y:\Documents\OTTD graphics\HEQS_build\Full HEQS\sprites\bulldozer_trailers\standard/end_dump_trailer_med_coal.pcx 146 15 09 20 26 -9 -7
  418 Y:\Documents\OTTD graphics\HEQS_build\Full HEQS\sprites\bulldozer_trailers\standard/end_dump_trailer_med_coal.pcx 178 15 01 24 12 -9 -16
  419 Y:\Documents\OTTD graphics\HEQS_build\Full HEQS\sprites\bulldozer_trailers\standard/end_dump_trailer_med_coal.pcx 210 15 09 20 26 -17 -7
  420 Y:\Documents\OTTD graphics\HEQS_build\Full HEQS\sprites\bulldozer_trailers\standard/end_dump_trailer_med_coal.pcx 242 15 01 16 36 -30 -8
  421 Y:\Documents\OTTD graphics\HEQS_build\Full HEQS\sprites\bulldozer_trailers\standard/end_dump_trailer_med_coal.pcx 290 15 09 20 26 -13 -10
   // Bulldozer trailer standard belly dump - coal, loaded
  422 Y:\Documents\OTTD graphics\HEQS_build\Full HEQS\sprites\bulldozer_trailers\standard/end_dump_trailer_med_coal.pcx 34 15 01 24 12 -3 -10
  423 Y:\Documents\OTTD graphics\HEQS_build\Full HEQS\sprites\bulldozer_trailers\standard/end_dump_trailer_med_coal.pcx 66 15 09 20 26 -11 -9
  424 Y:\Documents\OTTD graphics\HEQS_build\Full HEQS\sprites\bulldozer_trailers\standard/end_dump_trailer_med_coal.pcx 98 15 01 16 36 -14 -6
  425 Y:\Documents\OTTD graphics\HEQS_build\Full HEQS\sprites\bulldozer_trailers\standard/end_dump_trailer_med_coal.pcx 146 15 09 20 26 -9 -7
  426 Y:\Documents\OTTD graphics\HEQS_build\Full HEQS\sprites\bulldozer_trailers\standard/end_dump_trailer_med_coal.pcx 178 15 01 24 12 -9 -16
  427 Y:\Documents\OTTD graphics\HEQS_build\Full HEQS\sprites\bulldozer_trailers\standard/end_dump_trailer_med_coal.pcx 210 15 09 20 26 -17 -7
  428 Y:\Documents\OTTD graphics\HEQS_build\Full HEQS\sprites\bulldozer_trailers\standard/end_dump_trailer_med_coal.pcx 242 15 01 16 36 -30 -8
  429 Y:\Documents\OTTD graphics\HEQS_build\Full HEQS\sprites\bulldozer_trailers\standard/end_dump_trailer_med_coal.pcx 290 15 09 20 26 -13 -10
   // Bulldozer trailer standard belly dump - grain, loading
  430 Y:\Documents\OTTD graphics\HEQS_build\Full HEQS\sprites\bulldozer_trailers\standard/end_dump_trailer_med_grain.pcx 34 15 01 24 12 -3 -10
  431 Y:\Documents\OTTD graphics\HEQS_build\Full HEQS\sprites\bulldozer_trailers\standard/end_dump_trailer_med_grain.pcx 66 15 09 20 26 -11 -9
  432 Y:\Documents\OTTD graphics\HEQS_build\Full HEQS\sprites\bulldozer_trailers\standard/end_dump_trailer_med_grain.pcx 98 15 01 16 36 -14 -6
  433 Y:\Documents\OTTD graphics\HEQS_build\Full HEQS\sprites\bulldozer_trailers\standard/end_dump_trailer_med_grain.pcx 146 15 09 20 26 -9 -7
  434 Y:\Documents\OTTD graphics\HEQS_build\Full HEQS\sprites\bulldozer_trailers\standard/end_dump_trailer_med_grain.pcx 178 15 01 24 12 -9 -16
  435 Y:\Documents\OTTD graphics\HEQS_build\Full HEQS\sprites\bulldozer_trailers\standard/end_dump_trailer_med_grain.pcx 210 15 09 20 26 -17 -7
  436 Y:\Documents\OTTD graphics\HEQS_build\Full HEQS\sprites\bulldozer_trailers\standard/end_dump_trailer_med_grain.pcx 242 15 01 16 36 -30 -8
  437 Y:\Documents\OTTD graphics\HEQS_build\Full HEQS\sprites\bulldozer_trailers\standard/end_dump_trailer_med_grain.pcx 290 15 09 20 26 -13 -10
  // Bulldozer trailer standard belly dump - grain, loaded
  438 Y:\Documents\OTTD graphics\HEQS_build\Full HEQS\sprites\bulldozer_trailers\standard/end_dump_trailer_med_grain.pcx 34 15 01 24 12 -3 -10
  439 Y:\Documents\OTTD graphics\HEQS_build\Full HEQS\sprites\bulldozer_trailers\standard/end_dump_trailer_med_grain.pcx 66 15 09 20 26 -11 -9
  440 Y:\Documents\OTTD graphics\HEQS_build\Full HEQS\sprites\bulldozer_trailers\standard/end_dump_trailer_med_grain.pcx 98 15 01 16 36 -14 -6
  441 Y:\Documents\OTTD graphics\HEQS_build\Full HEQS\sprites\bulldozer_trailers\standard/end_dump_trailer_med_grain.pcx 146 15 09 20 26 -9 -7
  442 Y:\Documents\OTTD graphics\HEQS_build\Full HEQS\sprites\bulldozer_trailers\standard/end_dump_trailer_med_grain.pcx 178 15 01 24 12 -9 -16
  443 Y:\Documents\OTTD graphics\HEQS_build\Full HEQS\sprites\bulldozer_trailers\standard/end_dump_trailer_med_grain.pcx 210 15 09 20 26 -17 -7
  444 Y:\Documents\OTTD graphics\HEQS_build\Full HEQS\sprites\bulldozer_trailers\standard/end_dump_trailer_med_grain.pcx 242 15 01 16 36 -30 -8
  445 Y:\Documents\OTTD graphics\HEQS_build\Full HEQS\sprites\bulldozer_trailers\standard/end_dump_trailer_med_grain.pcx 290 15 09 20 26 -13 -10
  // Bulldozer trailer standard belly dump - clay, loading
  446 Y:\Documents\OTTD graphics\HEQS_build\Full HEQS\sprites\bulldozer_trailers\standard/end_dump_trailer_med_brown.pcx 34 15 01 24 12 -3 -10
  447 Y:\Documents\OTTD graphics\HEQS_build\Full HEQS\sprites\bulldozer_trailers\standard/end_dump_trailer_med_brown.pcx 66 15 09 20 26 -11 -9
  448 Y:\Documents\OTTD graphics\HEQS_build\Full HEQS\sprites\bulldozer_trailers\standard/end_dump_trailer_med_brown.pcx 98 15 01 16 36 -14 -6
  449 Y:\Documents\OTTD graphics\HEQS_build\Full HEQS\sprites\bulldozer_trailers\standard/end_dump_trailer_med_brown.pcx 146 15 09 20 26 -9 -7
  450 Y:\Documents\OTTD graphics\HEQS_build\Full HEQS\sprites\bulldozer_trailers\standard/end_dump_trailer_med_brown.pcx 178 15 01 24 12 -9 -16
  451 Y:\Documents\OTTD graphics\HEQS_build\Full HEQS\sprites\bulldozer_trailers\standard/end_dump_trailer_med_brown.pcx 210 15 09 20 26 -17 -7
  452 Y:\Documents\OTTD graphics\HEQS_build\Full HEQS\sprites\bulldozer_trailers\standard/end_dump_trailer_med_brown.pcx 242 15 01 16 36 -30 -8
  453 Y:\Documents\OTTD graphics\HEQS_build\Full HEQS\sprites\bulldozer_trailers\standard/end_dump_trailer_med_brown.pcx 290 15 09 20 26 -13 -10
  // Bulldozer trailer standard belly dump - clay, loaded
  454 Y:\Documents\OTTD graphics\HEQS_build\Full HEQS\sprites\bulldozer_trailers\standard/end_dump_trailer_med_brown.pcx 34 15 01 24 12 -3 -10
  455 Y:\Documents\OTTD graphics\HEQS_build\Full HEQS\sprites\bulldozer_trailers\standard/end_dump_trailer_med_brown.pcx 66 15 09 20 26 -11 -9
  456 Y:\Documents\OTTD graphics\HEQS_build\Full HEQS\sprites\bulldozer_trailers\standard/end_dump_trailer_med_brown.pcx 98 15 01 16 36 -14 -6
  457 Y:\Documents\OTTD graphics\HEQS_build\Full HEQS\sprites\bulldozer_trailers\standard/end_dump_trailer_med_brown.pcx 146 15 09 20 26 -9 -7
  458 Y:\Documents\OTTD graphics\HEQS_build\Full HEQS\sprites\bulldozer_trailers\standard/end_dump_trailer_med_brown.pcx 178 15 01 24 12 -9 -16
  459 Y:\Documents\OTTD graphics\HEQS_build\Full HEQS\sprites\bulldozer_trailers\standard/end_dump_trailer_med_brown.pcx 210 15 09 20 26 -17 -7
  460 Y:\Documents\OTTD graphics\HEQS_build\Full HEQS\sprites\bulldozer_trailers\standard/end_dump_trailer_med_brown.pcx 242 15 01 16 36 -30 -8
  461 Y:\Documents\OTTD graphics\HEQS_build\Full HEQS\sprites\bulldozer_trailers\standard/end_dump_trailer_med_brown.pcx 290 15 09 20 26 -13 -10
  // Bulldozer trailer standard belly dump - copper ore, loading
  462 Y:\Documents\OTTD graphics\HEQS_build\Full HEQS\sprites\bulldozer_trailers\standard/end_dump_trailer_med_red.pcx 34 15 01 24 12 -3 -10
  463 Y:\Documents\OTTD graphics\HEQS_build\Full HEQS\sprites\bulldozer_trailers\standard/end_dump_trailer_med_red.pcx 66 15 09 20 26 -11 -9
  464 Y:\Documents\OTTD graphics\HEQS_build\Full HEQS\sprites\bulldozer_trailers\standard/end_dump_trailer_med_red.pcx 98 15 01 16 36 -14 -6
  465 Y:\Documents\OTTD graphics\HEQS_build\Full HEQS\sprites\bulldozer_trailers\standard/end_dump_trailer_med_red.pcx 146 15 09 20 26 -9 -7
  466 Y:\Documents\OTTD graphics\HEQS_build\Full HEQS\sprites\bulldozer_trailers\standard/end_dump_trailer_med_red.pcx 178 15 01 24 12 -9 -16
  467 Y:\Documents\OTTD graphics\HEQS_build\Full HEQS\sprites\bulldozer_trailers\standard/end_dump_trailer_med_red.pcx 210 15 09 20 26 -17 -7
  468 Y:\Documents\OTTD graphics\HEQS_build\Full HEQS\sprites\bulldozer_trailers\standard/end_dump_trailer_med_red.pcx 242 15 01 16 36 -30 -8
  469 Y:\Documents\OTTD graphics\HEQS_build\Full HEQS\sprites\bulldozer_trailers\standard/end_dump_trailer_med_red.pcx 290 15 09 20 26 -13 -10
  // Bulldozer trailer standard belly dump - copper ore, loaded
  470 Y:\Documents\OTTD graphics\HEQS_build\Full HEQS\sprites\bulldozer_trailers\standard/end_dump_trailer_med_red.pcx 34 15 01 24 12 -3 -10
  471 Y:\Documents\OTTD graphics\HEQS_build\Full HEQS\sprites\bulldozer_trailers\standard/end_dump_trailer_med_red.pcx 66 15 09 20 26 -11 -9
  472 Y:\Documents\OTTD graphics\HEQS_build\Full HEQS\sprites\bulldozer_trailers\standard/end_dump_trailer_med_red.pcx 98 15 01 16 36 -14 -6
  473 Y:\Documents\OTTD graphics\HEQS_build\Full HEQS\sprites\bulldozer_trailers\standard/end_dump_trailer_med_red.pcx 146 15 09 20 26 -9 -7
  474 Y:\Documents\OTTD graphics\HEQS_build\Full HEQS\sprites\bulldozer_trailers\standard/end_dump_trailer_med_red.pcx 178 15 01 24 12 -9 -16
  475 Y:\Documents\OTTD graphics\HEQS_build\Full HEQS\sprites\bulldozer_trailers\standard/end_dump_trailer_med_red.pcx 210 15 09 20 26 -17 -7
  476 Y:\Documents\OTTD graphics\HEQS_build\Full HEQS\sprites\bulldozer_trailers\standard/end_dump_trailer_med_red.pcx 242 15 01 16 36 -30 -8
  477 Y:\Documents\OTTD graphics\HEQS_build\Full HEQS\sprites\bulldozer_trailers\standard/end_dump_trailer_med_red.pcx 290 15 09 20 26 -13 -10
  // Bulldozer trailer standard belly dump - sugar, loading
  478 Y:\Documents\OTTD graphics\HEQS_build\Full HEQS\sprites\bulldozer_trailers\standard/end_dump_trailer_med_white.pcx 34 15 01 24 12 -3 -10
  479 Y:\Documents\OTTD graphics\HEQS_build\Full HEQS\sprites\bulldozer_trailers\standard/end_dump_trailer_med_white.pcx 66 15 09 20 26 -11 -9
  480 Y:\Documents\OTTD graphics\HEQS_build\Full HEQS\sprites\bulldozer_trailers\standard/end_dump_trailer_med_white.pcx 98 15 01 16 36 -14 -6
  481 Y:\Documents\OTTD graphics\HEQS_build\Full HEQS\sprites\bulldozer_trailers\standard/end_dump_trailer_med_white.pcx 146 15 09 20 26 -9 -7
  482 Y:\Documents\OTTD graphics\HEQS_build\Full HEQS\sprites\bulldozer_trailers\standard/end_dump_trailer_med_white.pcx 178 15 01 24 12 -9 -16
  483 Y:\Documents\OTTD graphics\HEQS_build\Full HEQS\sprites\bulldozer_trailers\standard/end_dump_trailer_med_white.pcx 210 15 09 20 26 -17 -7
  484 Y:\Documents\OTTD graphics\HEQS_build\Full HEQS\sprites\bulldozer_trailers\standard/end_dump_trailer_med_white.pcx 242 15 01 16 36 -30 -8
  485 Y:\Documents\OTTD graphics\HEQS_build\Full HEQS\sprites\bulldozer_trailers\standard/end_dump_trailer_med_white.pcx 290 15 09 20 26 -13 -10
  // Bulldozer trailer standard belly dump - sugar, loaded
  486 Y:\Documents\OTTD graphics\HEQS_build\Full HEQS\sprites\bulldozer_trailers\standard/end_dump_trailer_med_white.pcx 34 15 01 24 12 -3 -10
  487 Y:\Documents\OTTD graphics\HEQS_build\Full HEQS\sprites\bulldozer_trailers\standard/end_dump_trailer_med_white.pcx 66 15 09 20 26 -11 -9
  488 Y:\Documents\OTTD graphics\HEQS_build\Full HEQS\sprites\bulldozer_trailers\standard/end_dump_trailer_med_white.pcx 98 15 01 16 36 -14 -6
  489 Y:\Documents\OTTD graphics\HEQS_build\Full HEQS\sprites\bulldozer_trailers\standard/end_dump_trailer_med_white.pcx 146 15 09 20 26 -9 -7
  490 Y:\Documents\OTTD graphics\HEQS_build\Full HEQS\sprites\bulldozer_trailers\standard/end_dump_trailer_med_white.pcx 178 15 01 24 12 -9 -16
  491 Y:\Documents\OTTD graphics\HEQS_build\Full HEQS\sprites\bulldozer_trailers\standard/end_dump_trailer_med_white.pcx 210 15 09 20 26 -17 -7
  492 Y:\Documents\OTTD graphics\HEQS_build\Full HEQS\sprites\bulldozer_trailers\standard/end_dump_trailer_med_white.pcx 242 15 01 16 36 -30 -8
  493 Y:\Documents\OTTD graphics\HEQS_build\Full HEQS\sprites\bulldozer_trailers\standard/end_dump_trailer_med_white.pcx 290 15 09 20 26 -13 -10
  // Bulldozer trailer standard belly dump - gravel, loading
  494 Y:\Documents\OTTD graphics\HEQS_build\Full HEQS\sprites\bulldozer_trailers\standard/end_dump_trailer_med_grey.pcx 34 15 01 24 12 -3 -10
  495 Y:\Documents\OTTD graphics\HEQS_build\Full HEQS\sprites\bulldozer_trailers\standard/end_dump_trailer_med_grey.pcx 66 15 09 20 26 -11 -9
  496 Y:\Documents\OTTD graphics\HEQS_build\Full HEQS\sprites\bulldozer_trailers\standard/end_dump_trailer_med_grey.pcx 98 15 01 16 36 -14 -6
  497 Y:\Documents\OTTD graphics\HEQS_build\Full HEQS\sprites\bulldozer_trailers\standard/end_dump_trailer_med_grey.pcx 146 15 09 20 26 -9 -7
  498 Y:\Documents\OTTD graphics\HEQS_build\Full HEQS\sprites\bulldozer_trailers\standard/end_dump_trailer_med_grey.pcx 178 15 01 24 12 -9 -16
  499 Y:\Documents\OTTD graphics\HEQS_build\Full HEQS\sprites\bulldozer_trailers\standard/end_dump_trailer_med_grey.pcx 210 15 09 20 26 -17 -7
  500 Y:\Documents\OTTD graphics\HEQS_build\Full HEQS\sprites\bulldozer_trailers\standard/end_dump_trailer_med_grey.pcx 242 15 01 16 36 -30 -8
  501 Y:\Documents\OTTD graphics\HEQS_build\Full HEQS\sprites\bulldozer_trailers\standard/end_dump_trailer_med_grey.pcx 290 15 09 20 26 -13 -10
  // Bulldozer trailer standard belly dump - gravel, loaded
  502 Y:\Documents\OTTD graphics\HEQS_build\Full HEQS\sprites\bulldozer_trailers\standard/end_dump_trailer_med_grey.pcx 34 15 01 24 12 -3 -10
  503 Y:\Documents\OTTD graphics\HEQS_build\Full HEQS\sprites\bulldozer_trailers\standard/end_dump_trailer_med_grey.pcx 66 15 09 20 26 -11 -9
  504 Y:\Documents\OTTD graphics\HEQS_build\Full HEQS\sprites\bulldozer_trailers\standard/end_dump_trailer_med_grey.pcx 98 15 01 16 36 -14 -6
  505 Y:\Documents\OTTD graphics\HEQS_build\Full HEQS\sprites\bulldozer_trailers\standard/end_dump_trailer_med_grey.pcx 146 15 09 20 26 -9 -7
  506 Y:\Documents\OTTD graphics\HEQS_build\Full HEQS\sprites\bulldozer_trailers\standard/end_dump_trailer_med_grey.pcx 178 15 01 24 12 -9 -16
  507 Y:\Documents\OTTD graphics\HEQS_build\Full HEQS\sprites\bulldozer_trailers\standard/end_dump_trailer_med_grey.pcx 210 15 09 20 26 -17 -7
  508 Y:\Documents\OTTD graphics\HEQS_build\Full HEQS\sprites\bulldozer_trailers\standard/end_dump_trailer_med_grey.pcx 242 15 01 16 36 -30 -8
  509 Y:\Documents\OTTD graphics\HEQS_build\Full HEQS\sprites\bulldozer_trailers\standard/end_dump_trailer_med_grey.pcx 290 15 09 20 26 -13 -10
  // Bulldozer trailer standard belly dump - ??, loading
  510 Y:\Documents\OTTD graphics\HEQS_build\Full HEQS\sprites\bulldozer_trailers\standard/end_dump_trailer_med.pcx 34 15 01 24 12 -3 -10
  511 Y:\Documents\OTTD graphics\HEQS_build\Full HEQS\sprites\bulldozer_trailers\standard/end_dump_trailer_med.pcx 66 15 09 20 26 -11 -9
  512 Y:\Documents\OTTD graphics\HEQS_build\Full HEQS\sprites\bulldozer_trailers\standard/end_dump_trailer_med.pcx 98 15 01 16 36 -14 -6
  513 Y:\Documents\OTTD graphics\HEQS_build\Full HEQS\sprites\bulldozer_trailers\standard/end_dump_trailer_med.pcx 146 15 09 20 26 -9 -7
  514 Y:\Documents\OTTD graphics\HEQS_build\Full HEQS\sprites\bulldozer_trailers\standard/end_dump_trailer_med.pcx 178 15 01 24 12 -9 -16
  515 Y:\Documents\OTTD graphics\HEQS_build\Full HEQS\sprites\bulldozer_trailers\standard/end_dump_trailer_med.pcx 210 15 09 20 26 -17 -7
  516 Y:\Documents\OTTD graphics\HEQS_build\Full HEQS\sprites\bulldozer_trailers\standard/end_dump_trailer_med.pcx 242 15 01 16 36 -30 -8
  517 Y:\Documents\OTTD graphics\HEQS_build\Full HEQS\sprites\bulldozer_trailers\standard/end_dump_trailer_med.pcx 290 15 09 20 26 -13 -10
  // Bulldozer trailer standard belly dump - ??, loaded
  518 Y:\Documents\OTTD graphics\HEQS_build\Full HEQS\sprites\bulldozer_trailers\standard/end_dump_trailer_med.pcx 34 15 01 24 12 -3 -10
  519 Y:\Documents\OTTD graphics\HEQS_build\Full HEQS\sprites\bulldozer_trailers\standard/end_dump_trailer_med.pcx 66 15 09 20 26 -11 -9
  520 Y:\Documents\OTTD graphics\HEQS_build\Full HEQS\sprites\bulldozer_trailers\standard/end_dump_trailer_med.pcx 98 15 01 16 36 -14 -6
  521 Y:\Documents\OTTD graphics\HEQS_build\Full HEQS\sprites\bulldozer_trailers\standard/end_dump_trailer_med.pcx 146 15 09 20 26 -9 -7
  522 Y:\Documents\OTTD graphics\HEQS_build\Full HEQS\sprites\bulldozer_trailers\standard/end_dump_trailer_med.pcx 178 15 01 24 12 -9 -16
  523 Y:\Documents\OTTD graphics\HEQS_build\Full HEQS\sprites\bulldozer_trailers\standard/end_dump_trailer_med.pcx 210 15 09 20 26 -17 -7
  524 Y:\Documents\OTTD graphics\HEQS_build\Full HEQS\sprites\bulldozer_trailers\standard/end_dump_trailer_med.pcx 242 15 01 16 36 -30 -8
  525 Y:\Documents\OTTD graphics\HEQS_build\Full HEQS\sprites\bulldozer_trailers\standard/end_dump_trailer_med.pcx 290 15 09 20 26 -13 -10
  526 * 17	 02 01 08 03 03 00 00 01 00 02 00 00 00 01 00 02 00
  527 * 17	 02 01 01 03 03 00 00 03 00 04 00 00 00 03 00 04 00
  528 * 17	 02 01 06 03 03 00 00 05 00 06 00 00 00 05 00 06 00
  529 * 17	 02 01 0E 03 03 00 00 07 00 08 00 00 00 07 00 08 00
  530 * 17	 02 01 17 03 03 00 00 09 00 0A 00 00 00 09 00 0A 00
  531 * 17	 02 01 11 03 03 00 00 0B 00 0C 00 00 00 0B 00 0C 00
//!!Warning (94): Redefining ID FF not used since previous definition at sprite 341.
  532 * 17	 02 01 FF 03 03 00 00 0D 00 0E 00 00 00 0D 00 0E 00
  533 * 17	 02 01 15 03 03 00 00 0F 00 10 00 00 00 0F 00 10 00
  // Bulldozer trailer standard flat trailer / (also stake trailer ??)
  534 * 4	 01 01 12 08
  // Bulldozer trailer standard flat trailer - empty
  535 Y:\Documents\OTTD graphics\HEQS_build\Full HEQS\sprites\bulldozer_trailers\standard/flat_trailer_med.pcx 34 15 01 24 12 -3 -10
  536 Y:\Documents\OTTD graphics\HEQS_build\Full HEQS\sprites\bulldozer_trailers\standard/flat_trailer_med.pcx 66 15 09 20 26 -11 -9
  537 Y:\Documents\OTTD graphics\HEQS_build\Full HEQS\sprites\bulldozer_trailers\standard/flat_trailer_med.pcx 98 15 01 16 36 -14 -6
  538 Y:\Documents\OTTD graphics\HEQS_build\Full HEQS\sprites\bulldozer_trailers\standard/flat_trailer_med.pcx 146 15 09 20 26 -9 -7
  539 Y:\Documents\OTTD graphics\HEQS_build\Full HEQS\sprites\bulldozer_trailers\standard/flat_trailer_med.pcx 178 15 01 24 12 -9 -16
  540 Y:\Documents\OTTD graphics\HEQS_build\Full HEQS\sprites\bulldozer_trailers\standard/flat_trailer_med.pcx 210 15 09 20 26 -17 -7
  541 Y:\Documents\OTTD graphics\HEQS_build\Full HEQS\sprites\bulldozer_trailers\standard/flat_trailer_med.pcx 242 15 01 16 36 -30 -8
  542 Y:\Documents\OTTD graphics\HEQS_build\Full HEQS\sprites\bulldozer_trailers\standard/flat_trailer_med.pcx 290 15 09 20 26 -13 -10
  // Bulldozer trailer standard flat trailer - steel, loading  
  543 Y:\Documents\OTTD graphics\HEQS_build\Full HEQS\sprites\bulldozer_trailers\standard/flat_trailer_med_steel.pcx 34 15 01 24 12 -3 -10
  544 Y:\Documents\OTTD graphics\HEQS_build\Full HEQS\sprites\bulldozer_trailers\standard/flat_trailer_med_steel.pcx 66 15 09 20 26 -11 -9
  545 Y:\Documents\OTTD graphics\HEQS_build\Full HEQS\sprites\bulldozer_trailers\standard/flat_trailer_med_steel.pcx 98 15 01 16 36 -14 -6
  546 Y:\Documents\OTTD graphics\HEQS_build\Full HEQS\sprites\bulldozer_trailers\standard/flat_trailer_med_steel.pcx 146 15 09 20 26 -9 -7
  547 Y:\Documents\OTTD graphics\HEQS_build\Full HEQS\sprites\bulldozer_trailers\standard/flat_trailer_med_steel.pcx 178 15 01 24 12 -9 -16
  548 Y:\Documents\OTTD graphics\HEQS_build\Full HEQS\sprites\bulldozer_trailers\standard/flat_trailer_med_steel.pcx 210 15 09 20 26 -17 -7
  549 Y:\Documents\OTTD graphics\HEQS_build\Full HEQS\sprites\bulldozer_trailers\standard/flat_trailer_med_steel.pcx 242 15 01 16 36 -30 -8
  550 Y:\Documents\OTTD graphics\HEQS_build\Full HEQS\sprites\bulldozer_trailers\standard/flat_trailer_med_steel.pcx 290 15 09 20 26 -13 -10
  // Bulldozer trailer standard flat trailer - steel, loaded  
  551 Y:\Documents\OTTD graphics\HEQS_build\Full HEQS\sprites\bulldozer_trailers\standard/flat_trailer_med_steel.pcx 34 15 01 24 12 -3 -10
  552 Y:\Documents\OTTD graphics\HEQS_build\Full HEQS\sprites\bulldozer_trailers\standard/flat_trailer_med_steel.pcx 66 15 09 20 26 -11 -9
  553 Y:\Documents\OTTD graphics\HEQS_build\Full HEQS\sprites\bulldozer_trailers\standard/flat_trailer_med_steel.pcx 98 15 01 16 36 -14 -6
  554 Y:\Documents\OTTD graphics\HEQS_build\Full HEQS\sprites\bulldozer_trailers\standard/flat_trailer_med_steel.pcx 146 15 09 20 26 -9 -7
  555 Y:\Documents\OTTD graphics\HEQS_build\Full HEQS\sprites\bulldozer_trailers\standard/flat_trailer_med_steel.pcx 178 15 01 24 12 -9 -16
  556 Y:\Documents\OTTD graphics\HEQS_build\Full HEQS\sprites\bulldozer_trailers\standard/flat_trailer_med_steel.pcx 210 15 09 20 26 -17 -7
  557 Y:\Documents\OTTD graphics\HEQS_build\Full HEQS\sprites\bulldozer_trailers\standard/flat_trailer_med_steel.pcx 242 15 01 16 36 -30 -8
  558 Y:\Documents\OTTD graphics\HEQS_build\Full HEQS\sprites\bulldozer_trailers\standard/flat_trailer_med_steel.pcx 290 15 09 20 26 -13 -10
  // Bulldozer trailer standard flat trailer - paper, loading  
  559 Y:\Documents\OTTD graphics\HEQS_build\Full HEQS\sprites\bulldozer_trailers\standard/flat_trailer_med_paper.pcx 34 15 01 24 12 -3 -10
  560 Y:\Documents\OTTD graphics\HEQS_build\Full HEQS\sprites\bulldozer_trailers\standard/flat_trailer_med_paper.pcx 66 15 09 20 26 -11 -9
  561 Y:\Documents\OTTD graphics\HEQS_build\Full HEQS\sprites\bulldozer_trailers\standard/flat_trailer_med_paper.pcx 98 15 01 16 36 -14 -6
  562 Y:\Documents\OTTD graphics\HEQS_build\Full HEQS\sprites\bulldozer_trailers\standard/flat_trailer_med_paper.pcx 146 15 09 20 26 -9 -7
  563 Y:\Documents\OTTD graphics\HEQS_build\Full HEQS\sprites\bulldozer_trailers\standard/flat_trailer_med_paper.pcx 178 15 01 24 12 -9 -16
  564 Y:\Documents\OTTD graphics\HEQS_build\Full HEQS\sprites\bulldozer_trailers\standard/flat_trailer_med_paper.pcx 210 15 09 20 26 -17 -7
  565 Y:\Documents\OTTD graphics\HEQS_build\Full HEQS\sprites\bulldozer_trailers\standard/flat_trailer_med_paper.pcx 242 15 01 16 36 -30 -8
  566 Y:\Documents\OTTD graphics\HEQS_build\Full HEQS\sprites\bulldozer_trailers\standard/flat_trailer_med_paper.pcx 290 15 09 20 26 -13 -10
  // Bulldozer trailer standard flat trailer - paper, loaded  
  567 Y:\Documents\OTTD graphics\HEQS_build\Full HEQS\sprites\bulldozer_trailers\standard/flat_trailer_med_paper.pcx 34 15 01 24 12 -3 -10
  568 Y:\Documents\OTTD graphics\HEQS_build\Full HEQS\sprites\bulldozer_trailers\standard/flat_trailer_med_paper.pcx 66 15 09 20 26 -11 -9
  569 Y:\Documents\OTTD graphics\HEQS_build\Full HEQS\sprites\bulldozer_trailers\standard/flat_trailer_med_paper.pcx 98 15 01 16 36 -14 -6
  570 Y:\Documents\OTTD graphics\HEQS_build\Full HEQS\sprites\bulldozer_trailers\standard/flat_trailer_med_paper.pcx 146 15 09 20 26 -9 -7
  571 Y:\Documents\OTTD graphics\HEQS_build\Full HEQS\sprites\bulldozer_trailers\standard/flat_trailer_med_paper.pcx 178 15 01 24 12 -9 -16
  572 Y:\Documents\OTTD graphics\HEQS_build\Full HEQS\sprites\bulldozer_trailers\standard/flat_trailer_med_paper.pcx 210 15 09 20 26 -17 -7
  573 Y:\Documents\OTTD graphics\HEQS_build\Full HEQS\sprites\bulldozer_trailers\standard/flat_trailer_med_paper.pcx 242 15 01 16 36 -30 -8
[...]
 2091 Y:\Documents\OTTD graphics\HEQS_build\Full HEQS\sprites\mining_trucks/95t_mining_truck_red.pcx 146 10 09 20 26 -11 -9
 2092 Y:\Documents\OTTD graphics\HEQS_build\Full HEQS\sprites\mining_trucks/95t_mining_truck_red.pcx 178 10 01 24 12 -5 -13
 2093 Y:\Documents\OTTD graphics\HEQS_build\Full HEQS\sprites\mining_trucks/95t_mining_truck_red.pcx 210 10 09 20 26 -16 -9
 2094 Y:\Documents\OTTD graphics\HEQS_build\Full HEQS\sprites\mining_trucks/95t_mining_truck_red.pcx 242 10 01 16 36 -20 -10
 2095 Y:\Documents\OTTD graphics\HEQS_build\Full HEQS\sprites\mining_trucks/95t_mining_truck_red.pcx 290 10 09 20 26 -10 -11
  // Kilimanjaro 95t hauler grey 
 2096 Y:\Documents\OTTD graphics\HEQS_build\Full HEQS\sprites\mining_trucks/95t_mining_truck_grey.pcx 34 10 01 24 12 -5 -13
 2097 Y:\Documents\OTTD graphics\HEQS_build\Full HEQS\sprites\mining_trucks/95t_mining_truck_grey.pcx 66 10 09 20 26 -15 -8
 2098 Y:\Documents\OTTD graphics\HEQS_build\Full HEQS\sprites\mining_trucks/95t_mining_truck_grey.pcx 98 10 01 16 36 -18 -8
 2099 Y:\Documents\OTTD graphics\HEQS_build\Full HEQS\sprites\mining_trucks/95t_mining_truck_grey.pcx 146 10 09 20 26 -11 -9
 2100 Y:\Documents\OTTD graphics\HEQS_build\Full HEQS\sprites\mining_trucks/95t_mining_truck_grey.pcx 178 10 01 24 12 -5 -13
 2101 Y:\Documents\OTTD graphics\HEQS_build\Full HEQS\sprites\mining_trucks/95t_mining_truck_grey.pcx 210 10 09 20 26 -16 -9
 2102 Y:\Documents\OTTD graphics\HEQS_build\Full HEQS\sprites\mining_trucks/95t_mining_truck_grey.pcx 242 10 01 16 36 -20 -10
 2103 Y:\Documents\OTTD graphics\HEQS_build\Full HEQS\sprites\mining_trucks/95t_mining_truck_grey.pcx 290 10 09 20 26 -10 -11
 2104 * 13	 02 01 A1 02 02 00 00 01 00 00 00 01 00
 2105 * 13	 02 01 A2 02 02 00 00 02 00 00 00 02 00
 2106 * 13	 02 01 A3 02 02 00 00 03 00 00 00 03 00
 2107 * 13	 02 01 A4 02 02 00 00 04 00 00 00 04 00
 2108 * 13	 02 01 A5 02 02 00 00 05 00 00 00 05 00
 2109 * 13	 02 01 A6 02 02 00 00 06 00 00 00 06 00
 2110 * 4	 01 01 01 04 // depot sprites
 2111 * 1	 00
 2112 * 1	 00
 2113 Y:\Documents\OTTD graphics\HEQS_build\Full HEQS\sprites\mining_trucks/95t_mining_truck.pcx 370 14 01 12 36 -14 -6
 2114 * 1	 00
 2115 * 9	 02 01 AF 01 01 00 00 00 00
 2116 * 25	 03 01 01 1F 
   06 
   01 A1 00
   08 A2 00
   0E A3 00 
   11 A4 00
   17 A5 00
   FF AF 00 // buy menu sprites
   A6 00 // default sprites

  // K2 Mining Truck  240t		2001-2050	37mph
//!!Fatal Error (47): Offset 67: Invalid property 20.
 2117 * 69	 00 01 1A 01 10
    00 \w1-1-1920  // intro date
    02 20     // reliability
    03 19     // vehicle life
    04 19     // class life
    06 0F     // climate
    07 05     // load amount
    08 \b118     // speed in mph * 3.2
    09 50     // running cost factor
    0A 48 4C 00 00 13 28 14 C8        // running cost base
    0E FF     // sprite ID
    0F 00     // capacity
    10 FF     // cargo type 
    11 5D     // cost factor
    12 19     // sound effect
    15 \b30     // speed in mph * 0.8
    16 40 00 00 28     // Bit mask of cargo types available for refitting
    // flips 1D / 1E values: excludes grain, wheat, maize
    17 16     // Callback flags bit mask
    1A 00     // Refit cost, using 25% of the purchase price cost base
    1B 00     // Retire vehicle early, this many years before the end of phase 2
    1C 02     // Miscellaneous vehicle flags
    1D 10 00          // Refittable cargo classes
    1E EF 03          // Non-refittable cargo classes
    1F 8D
    26 0B 00    // Long format introduction date
    20 23 // sort vehicle list
 2118 * 21	 04 01 7F 01 10 "K2 Mining Truck" 00
 2119 * 62	 04 01 81 01 D4 D0 "Hauls: " 8A "Two 120t belly-dump trailers (240t total cargo)" 00
 2120 * 4	 01 01 01 08
  // Kilimanjaro (Articulated) dump truck empty
 2121 Y:\Documents\OTTD graphics\HEQS_build\Full HEQS\sprites\off_highway_trucks/mining_truck_chassis.pcx 34 10 01 24 12 -5 -16
 2122 Y:\Documents\OTTD graphics\HEQS_build\Full HEQS\sprites\off_highway_trucks/mining_truck_chassis.pcx 66 10 09 20 26 -15 -8
 2123 Y:\Documents\OTTD graphics\HEQS_build\Full HEQS\sprites\off_highway_trucks/mining_truck_chassis.pcx 98 10 01 16 36 -18 -10
 2124 Y:\Documents\OTTD graphics\HEQS_build\Full HEQS\sprites\off_highway_trucks/mining_truck_chassis.pcx 146 10 09 20 26 -11 -9
 2125 Y:\Documents\OTTD graphics\HEQS_build\Full HEQS\sprites\off_highway_trucks/mining_truck_chassis.pcx 178 10 01 24 12 -5 -15
 2126 Y:\Documents\OTTD graphics\HEQS_build\Full HEQS\sprites\off_highway_trucks/mining_truck_chassis.pcx 210 10 09 20 26 -16 -9
 2127 Y:\Documents\OTTD graphics\HEQS_build\Full HEQS\sprites\off_highway_trucks/mining_truck_chassis.pcx 242 10 01 16 36 -20 -10
 2128 Y:\Documents\OTTD graphics\HEQS_build\Full HEQS\sprites\off_highway_trucks/mining_truck_chassis.pcx 290 10 09 20 26 -10 -11
 2129 * 9	 02 01 A1 01 01 00 00 00 00 //normal action2 defining graphics with no loading/loaded stages
 2130 * 4	 01 01 01 04
 2131 * 1	 00
 2132 * 1	 00
 2133 Y:\Documents\OTTD graphics\HEQS_build\Full HEQS\sprites\off_highway_trucks/mining_truck_chassis.pcx 370 14 01 12 36 -14 -6
 2134 * 1	 00
 2135 * 9	 02 01 F1 // action2 buy menu sprites 
      01 // number loading states
      01 // number loaded states
      00 00 // loading sprites
      00 00 // loaded sprites
 2136 * 14	 02 01 F0 // varaction 2 handles buy menu callbacks 
                 81 0C 00 FF //check byte value of variable 81 (no bit shift, FF andmask)
                 01 // range
                   D4 80 23 23 // text for vehicle window
                 F1 00 //otherwise go to next action 2 ID 
 2137 * 22	 02 01 B0 //ID B0
               81 10 00 FF //check byte value of variable 10 (no bit shift, FF andmask)
               03 //check one ranges
               07 80 01 01 //give callback result
               04 80 02 02 //give callback result
               07 80 03 03 //give callback result
               FF FF //otherwise end the callback chain
 2138 * 14	 02 01 B1 //ID B1
               81 0C 00 FF //check byte value of variable 81 (no bit shift, FF andmask)
               01 //check one range
               B0 00 16 16 //go to ID B0 for value 16 (ie. go to the articulated vehicle building instructions)
               A1 00 //otherwise go to ID A1 (ie. apply vehicle graphics)
 2139 * 10	 03   // Action 3
    01  // RV 
    01  // Number of vehicles this action associate graphics with 
    10  // Vehicle ID
    01  // Number of different cargo types to support 
    FF F0 00 // buy menu sprites
    B1 00   // Action 2 ID above  

  // Unitised Mining Hauler  200t	1200hp	1990-2050	57mph
//!!Fatal Error (47): Offset 67: Invalid property 20.
 2140 * 69	 00 01 1A 01 11
    00 \w1-1-1920  // intro date
    02 20     // reliability
    03 19     // vehicle life
    04 19     // class life
    06 0F     // climate
    07 05     // load amount
    08 \b182     // speed in mph * 3.2
    09 50     // running cost factor
    0A 48 4C 00 00 13 28 14 C8        // running cost base
    0E FF     // sprite ID
    0F \b200     // capacity
    10 FF     // cargo type 
    11 5D     // cost factor
    12 19     // sound effect
    15 \b46     // speed in mph * 0.8
    16 40 00 00 28     // Bit mask of cargo types available for refitting
    // flips 1D / 1E values: excludes grain, wheat, maize
    17 00     // Callback flags bit mask
    1A 00     // Refit cost, using 25% of the purchase price cost base
    1B 00     // Retire vehicle early, this many years before the end of phase 2
    1C 02     // Miscellaneous vehicle flags
    1D 10 00          // Refittable cargo classes
    1E EF 03          // Non-refittable cargo classes
    1F 2F 07 0B 00   // Long format introduction date
    20 23 // sort vehicle list
 2141 * 27	 04 01 7F 01 11 "Unitised Mining Truck" 00
 2142 * 4	 01 01 07 08
  // unitised hauler empty
 2143 Y:\Documents\OTTD graphics\HEQS_build\Full HEQS\sprites\mining_trucks/unitised_mining_truck.pcx 34 10 01 24 12 -5 -15
 2144 Y:\Documents\OTTD graphics\HEQS_build\Full HEQS\sprites\mining_trucks/unitised_mining_truck.pcx 66 10 01 22 30 -17 -10
 2145 Y:\Documents\OTTD graphics\HEQS_build\Full HEQS\sprites\mining_trucks/unitised_mining_truck.pcx 98 10 01 16 36 -14 -9
 2146 Y:\Documents\OTTD graphics\HEQS_build\Full HEQS\sprites\mining_trucks/unitised_mining_truck.pcx 146 10 01 22 30 -10 -10
 2147 Y:\Documents\OTTD graphics\HEQS_build\Full HEQS\sprites\mining_trucks/unitised_mining_truck.pcx 178 10 01 24 12 -5 -13
 2148 Y:\Documents\OTTD graphics\HEQS_build\Full HEQS\sprites\mining_trucks/unitised_mining_truck.pcx 210 10 01 22 30 -18 -11
 2149 Y:\Documents\OTTD graphics\HEQS_build\Full HEQS\sprites\mining_trucks/unitised_mining_truck.pcx 242 10 01 16 36 -24 -10
 2150 Y:\Documents\OTTD graphics\HEQS_build\Full HEQS\sprites\mining_trucks/unitised_mining_truck.pcx 290 10 01 22 30 -9 -11
  // unitised hauler coal
 2151 Y:\Documents\OTTD graphics\HEQS_build\Full HEQS\sprites\mining_trucks/unitised_mining_truck_coal.pcx 34 10 01 24 12 -5 -15
 2152 Y:\Documents\OTTD graphics\HEQS_build\Full HEQS\sprites\mining_trucks/unitised_mining_truck_coal.pcx 66 10 01 22 30 -17 -10
 2153 Y:\Documents\OTTD graphics\HEQS_build\Full HEQS\sprites\mining_trucks/unitised_mining_truck_coal.pcx 98 10 01 16 36 -14 -9
 2154 Y:\Documents\OTTD graphics\HEQS_build\Full HEQS\sprites\mining_trucks/unitised_mining_truck_coal.pcx 146 10 01 22 30 -10 -10
 2155 Y:\Documents\OTTD graphics\HEQS_build\Full HEQS\sprites\mining_trucks/unitised_mining_truck_coal.pcx 178 10 01 24 12 -5 -13
 2156 Y:\Documents\OTTD graphics\HEQS_build\Full HEQS\sprites\mining_trucks/unitised_mining_truck_coal.pcx 210 10 01 22 30 -18 -11
 2157 Y:\Documents\OTTD graphics\HEQS_build\Full HEQS\sprites\mining_trucks/unitised_mining_truck_coal.pcx 242 10 01 16 36 -24 -10
 2158 Y:\Documents\OTTD graphics\HEQS_build\Full HEQS\sprites\mining_trucks/unitised_mining_truck_coal.pcx 290 10 01 22 30 -9 -11
  // unitised hauler iron 
 2159 Y:\Documents\OTTD graphics\HEQS_build\Full HEQS\sprites\mining_trucks/unitised_mining_truck_iron.pcx 34 10 01 24 12 -5 -15
 2160 Y:\Documents\OTTD graphics\HEQS_build\Full HEQS\sprites\mining_trucks/unitised_mining_truck_iron.pcx 66 10 01 22 30 -17 -10
 2161 Y:\Documents\OTTD graphics\HEQS_build\Full HEQS\sprites\mining_trucks/unitised_mining_truck_iron.pcx 98 10 01 16 36 -14 -9
 2162 Y:\Documents\OTTD graphics\HEQS_build\Full HEQS\sprites\mining_trucks/unitised_mining_truck_iron.pcx 146 10 01 22 30 -10 -10
 2163 Y:\Documents\OTTD graphics\HEQS_build\Full HEQS\sprites\mining_trucks/unitised_mining_truck_iron.pcx 178 10 01 24 12 -5 -13
 2164 Y:\Documents\OTTD graphics\HEQS_build\Full HEQS\sprites\mining_trucks/unitised_mining_truck_iron.pcx 210 10 01 22 30 -18 -11
 2165 Y:\Documents\OTTD graphics\HEQS_build\Full HEQS\sprites\mining_trucks/unitised_mining_truck_iron.pcx 242 10 01 16 36 -24 -10
 2166 Y:\Documents\OTTD graphics\HEQS_build\Full HEQS\sprites\mining_trucks/unitised_mining_truck_iron.pcx 290 10 01 22 30 -9 -11
  // unitised hauler brown
 2167 Y:\Documents\OTTD graphics\HEQS_build\Full HEQS\sprites\mining_trucks/unitised_mining_truck_brown.pcx 34 10 01 24 12 -5 -15
 2168 Y:\Documents\OTTD graphics\HEQS_build\Full HEQS\sprites\mining_trucks/unitised_mining_truck_brown.pcx 66 10 01 22 30 -17 -10
 2169 Y:\Documents\OTTD graphics\HEQS_build\Full HEQS\sprites\mining_trucks/unitised_mining_truck_brown.pcx 98 10 01 16 36 -14 -9
 2170 Y:\Documents\OTTD graphics\HEQS_build\Full HEQS\sprites\mining_trucks/unitised_mining_truck_brown.pcx 146 10 01 22 30 -10 -10
 2171 Y:\Documents\OTTD graphics\HEQS_build\Full HEQS\sprites\mining_trucks/unitised_mining_truck_brown.pcx 178 10 01 24 12 -5 -13
 2172 Y:\Documents\OTTD graphics\HEQS_build\Full HEQS\sprites\mining_trucks/unitised_mining_truck_brown.pcx 210 10 01 22 30 -18 -11
 2173 Y:\Documents\OTTD graphics\HEQS_build\Full HEQS\sprites\mining_trucks/unitised_mining_truck_brown.pcx 242 10 01 16 36 -24 -10
 2174 Y:\Documents\OTTD graphics\HEQS_build\Full HEQS\sprites\mining_trucks/unitised_mining_truck_brown.pcx 290 10 01 22 30 -9 -11
  // unitised hauler white 
 2175 Y:\Documents\OTTD graphics\HEQS_build\Full HEQS\sprites\mining_trucks/unitised_mining_truck_white.pcx 34 10 01 24 12 -5 -15
 2176 Y:\Documents\OTTD graphics\HEQS_build\Full HEQS\sprites\mining_trucks/unitised_mining_truck_white.pcx 66 10 01 22 30 -17 -10
 2177 Y:\Documents\OTTD graphics\HEQS_build\Full HEQS\sprites\mining_trucks/unitised_mining_truck_white.pcx 98 10 01 16 36 -14 -9
 2178 Y:\Documents\OTTD graphics\HEQS_build\Full HEQS\sprites\mining_trucks/unitised_mining_truck_white.pcx 146 10 01 22 30 -10 -10
 2179 Y:\Documents\OTTD graphics\HEQS_build\Full HEQS\sprites\mining_trucks/unitised_mining_truck_white.pcx 178 10 01 24 12 -5 -13
 2180 Y:\Documents\OTTD graphics\HEQS_build\Full HEQS\sprites\mining_trucks/unitised_mining_truck_white.pcx 210 10 01 22 30 -18 -11
 2181 Y:\Documents\OTTD graphics\HEQS_build\Full HEQS\sprites\mining_trucks/unitised_mining_truck_white.pcx 242 10 01 16 36 -24 -10
 2182 Y:\Documents\OTTD graphics\HEQS_build\Full HEQS\sprites\mining_trucks/unitised_mining_truck_white.pcx 290 10 01 22 30 -9 -11
  // unitised hauler red
 2183 Y:\Documents\OTTD graphics\HEQS_build\Full HEQS\sprites\mining_trucks/unitised_mining_truck_red.pcx 34 10 01 24 12 -5 -15
 2184 Y:\Documents\OTTD graphics\HEQS_build\Full HEQS\sprites\mining_trucks/unitised_mining_truck_red.pcx 66 10 01 22 30 -17 -10
 2185 Y:\Documents\OTTD graphics\HEQS_build\Full HEQS\sprites\mining_trucks/unitised_mining_truck_red.pcx 98 10 01 16 36 -14 -9
 2186 Y:\Documents\OTTD graphics\HEQS_build\Full HEQS\sprites\mining_trucks/unitised_mining_truck_red.pcx 146 10 01 22 30 -10 -10
 2187 Y:\Documents\OTTD graphics\HEQS_build\Full HEQS\sprites\mining_trucks/unitised_mining_truck_red.pcx 178 10 01 24 12 -5 -13
 2188 Y:\Documents\OTTD graphics\HEQS_build\Full HEQS\sprites\mining_trucks/unitised_mining_truck_red.pcx 210 10 01 22 30 -18 -11
 2189 Y:\Documents\OTTD graphics\HEQS_build\Full HEQS\sprites\mining_trucks/unitised_mining_truck_red.pcx 242 10 01 16 36 -24 -10
 2190 Y:\Documents\OTTD graphics\HEQS_build\Full HEQS\sprites\mining_trucks/unitised_mining_truck_red.pcx 290 10 01 22 30 -9 -11
  // unitised hauler grey
 2191 Y:\Documents\OTTD graphics\HEQS_build\Full HEQS\sprites\mining_trucks/unitised_mining_truck_grey.pcx 34 10 01 24 12 -5 -15
 2192 Y:\Documents\OTTD graphics\HEQS_build\Full HEQS\sprites\mining_trucks/unitised_mining_truck_grey.pcx 66 10 01 22 30 -17 -10
 2193 Y:\Documents\OTTD graphics\HEQS_build\Full HEQS\sprites\mining_trucks/unitised_mining_truck_grey.pcx 98 10 01 16 36 -14 -9
 2194 Y:\Documents\OTTD graphics\HEQS_build\Full HEQS\sprites\mining_trucks/unitised_mining_truck_grey.pcx 146 10 01 22 30 -10 -10
 2195 Y:\Documents\OTTD graphics\HEQS_build\Full HEQS\sprites\mining_trucks/unitised_mining_truck_grey.pcx 178 10 01 24 12 -5 -13
 2196 Y:\Documents\OTTD graphics\HEQS_build\Full HEQS\sprites\mining_trucks/unitised_mining_truck_grey.pcx 210 10 01 22 30 -18 -11
 2197 Y:\Documents\OTTD graphics\HEQS_build\Full HEQS\sprites\mining_trucks/unitised_mining_truck_grey.pcx 242 10 01 16 36 -24 -10
 2198 Y:\Documents\OTTD graphics\HEQS_build\Full HEQS\sprites\mining_trucks/unitised_mining_truck_grey.pcx 290 10 01 22 30 -9 -11
 2199 * 13	 02 01 A1 02 02 00 00 01 00 00 00 01 00
 2200 * 13	 02 01 A2 02 02 00 00 02 00 00 00 02 00
 2201 * 13	 02 01 A3 02 02 00 00 03 00 00 00 03 00
 2202 * 13	 02 01 A4 02 02 00 00 04 00 00 00 04 00
 2203 * 13	 02 01 A5 02 02 00 00 05 00 00 00 05 00
 2204 * 13	 02 01 A6 02 02 00 00 06 00 00 00 06 00
 2205 * 4	 01 01 01 04
 2206 * 1	 00
 2207 * 1	 00
 2208 Y:\Documents\OTTD graphics\HEQS_build\Full HEQS\sprites\mining_trucks/unitised_mining_truck.pcx 370 14 01 12 36 -14 -6
 2209 * 1	 00
 2210 * 9	 02 01 AF 01 01 00 00 00 00
 2211 * 25	 03 01 01 11 
   06
   01 A1 00
   08 A2 00
   0E A3 00
   11 A4 00
   17 A5 00
   FF AF 00 // buy menu sprites
   A6 00 // default sprites
  // --------------------------- end of Dump trucks / Mining Haulers --------------------- //

  // --------------------------- Off-Highway Trucks --------------------- //

  // Cascade Off-Highway Truck  90t		1960-1982		30mph
 2212 * 67	 00 01 19 01 23
    00 \w1-1-1920  // intro date
    02 20     // reliability
    03 19     // vehicle life
    04 19     // class life
    06 00     // climate  !! set to 00 to hide this vehicle until finished
    07 05     // load amount
    08 \b96     // speed in mph * 3.2
    09 50     // running cost factor
    0A 48 4C 00 00 13 28 14 C8        // running cost base
    0E FF     // sprite ID
    0F 00     // capacity
    10 FF     // cargo type 
    11 5D     // cost factor
    12 19     // sound effect
    15 \b24     // speed in mph * 0.8
    16 40 00 00 28     // Bit mask of cargo types available for refitting
    // flips 1D / 1E values: excludes grain, wheat, maize
    17 16     // Callback flags bit mask
    1A 00     // Refit cost, using 25% of the purchase price cost base
    1B 00     // Retire vehicle early, this many years before the end of phase 2
    1C 02     // Miscellaneous vehicle flags
    1D 10 00          // Refittable cargo classes
    1E EF 03          // Non-refittable cargo classes
    1F 72 EC 0A 00    // Long format introduction date
 2213 * 31	 04 01 7F 01 23 "Cascade Off-Highway Truck" 00
 2214 * 4	 01 01 01 08
  // Cascade off-highway truck empty
 2215 Y:\Documents\OTTD graphics\HEQS_build\Full HEQS\sprites\off_highway_trucks/1960_truck_3_axle.pcx 34 10 01 24 12 -5 -18
 2216 Y:\Documents\OTTD graphics\HEQS_build\Full HEQS\sprites\off_highway_trucks/1960_truck_3_axle.pcx 66 10 09 20 26 -17 -8
 2217 Y:\Documents\OTTD graphics\HEQS_build\Full HEQS\sprites\off_highway_trucks/1960_truck_3_axle.pcx 98 10 01 16 36 -10 -10
 2218 Y:\Documents\OTTD graphics\HEQS_build\Full HEQS\sprites\off_highway_trucks/1960_truck_3_axle.pcx 146 10 09 20 26 -11 -9
 2219 Y:\Documents\OTTD graphics\HEQS_build\Full HEQS\sprites\off_highway_trucks/1960_truck_3_axle.pcx 178 10 01 24 12 -5 -16
 2220 Y:\Documents\OTTD graphics\HEQS_build\Full HEQS\sprites\off_highway_trucks/1960_truck_3_axle.pcx 210 10 09 20 26 -16 -9
 2221 Y:\Documents\OTTD graphics\HEQS_build\Full HEQS\sprites\off_highway_trucks/1960_truck_3_axle.pcx 242 10 01 16 36 -18 -10
 2222 Y:\Documents\OTTD graphics\HEQS_build\Full HEQS\sprites\off_highway_trucks/1960_truck_3_axle.pcx 290 10 09 20 26 -8 -11
 2223 * 9	 02 01 A1 01 01 00 00 00 00 //normal action2 defining graphics with no loading/loaded stages
 2224 * 4	 01 01 01 04
 2225 * 1	 00
 2226 * 1	 00
 2227 Y:\Documents\OTTD graphics\HEQS_build\Full HEQS\sprites\off_highway_trucks/1960_truck_3_axle.pcx 242 10 01 16 36 -18 -8
 2228 * 1	 00
 2229 * 14	 02 01 B0 //ID B0
               81 10 00 FF //check byte value of variable 10 (no bit shift, FF andmask)
               01 //check one ranges
               06 80 01 01 //give callback result
               FF FF //otherwise end the callback chain
 2230 * 14	 02 01 B1 //ID B1
               81 0C 00 FF //check byte value of variable 81 (no bit shift, FF andmask)
               01 //check one range
               B0 00 16 16 //go to ID B0 for value 16 (ie. go to the articulated vehicle building instructions)
               A1 00 //otherwise go to ID A1 (ie. apply vehicle graphics)
 2231 * 7	 03   // Action 3
    01  // RV 
    01  // Number of vehicles this action associate graphics with 
    23  // Vehicle ID
    00  // Number of different cargo types to support  
    B1 00   // Action 2 ID above  
// --------------------------- end of Off-Highway Trucks --------------------- //
//!!Warning (97): Set 00 defined by the previous Action 1 (sprite 2224) has not been used.
